104803
  -OEChem-12171208222D

154159  0     1  0  0  0  0  0999 V2000
   10.2641    1.7320    0.0000 O   0  0  0  0  0  0  0  0  0  0  0  0
   17.2641   -1.7320    0.0000 O   0  0  0  0  0  0  0  0  0  0  0  0
    2.8680    3.9882    0.0000 O   0  0  0  0  0  0  0  0  0  0  0  0
   24.6602   -3.9882    0.0000 O   0  0  0  0  0  0  0  0  0  0  0  0
   24.6602   -1.9400    0.0000 O   0  0  0  0  0  0  0  0  0  0  0  0
    2.8680    1.9400    0.0000 O   0  0  0  0  0  0  0  0  0  0  0  0
   24.5942   -4.9641    0.0000 O   0  0  0  0  0  0  0  0  0  0  0  0
    2.9340    4.9641    0.0000 O   0  0  0  0  0  0  0  0  0  0  0  0
   22.8622   -7.9641    0.0000 O   0  0  0  0  0  0  0  0  0  0  0  0
    4.6660    7.9641    0.0000 O   0  0  0  0  0  0  0  0  0  0  0  0
   24.5942   -6.9641    0.0000 O   0  0  0  0  0  0  0  0  0  0  0  0
    2.9340    6.9641    0.0000 O   0  0  0  0  0  0  0  0  0  0  0  0
   15.7641   -2.5981    0.0000 O   0  0  0  0  0  0  0  0  0  0  0  0
   11.7641    2.5981    0.0000 O   0  0  0  0  0  0  0  0  0  0  0  0
   20.2641   -3.4641    0.0000 N   0  3  3  0  0  0  0  0  0  0  0  0
    7.2641    3.4641    0.0000 N   0  3  3  0  0  0  0  0  0  0  0  0
    6.3981    3.9641    0.0000 C   0  0  3  0  0  0  0  0  0  0  0  0
   21.1301   -3.9641    0.0000 C   0  0  3  0  0  0  0  0  0  0  0  0
   20.2641   -2.4641    0.0000 C   0  0  0  0  0  0  0  0  0  0  0  0
    7.2641    2.4641    0.0000 C   0  0  0  0  0  0  0  0  0  0  0  0
    8.2641    3.4641    0.0000 C   0  0  0  0  0  0  0  0  0  0  0  0
   19.2641   -3.4641    0.0000 C   0  0  0  0  0  0  0  0  0  0  0  0
   21.9961   -3.4641    0.0000 C   0  0  0  0  0  0  0  0  0  0  0  0
    5.5320    3.4641    0.0000 C   0  0  0  0  0  0  0  0  0  0  0  0
   21.1301   -1.9641    0.0000 C   0  0  0  0  0  0  0  0  0  0  0  0
    6.3981    1.9641    0.0000 C   0  0  0  0  0  0  0  0  0  0  0  0
   19.7641   -4.3301    0.0000 C   0  0  0  0  0  0  0  0  0  0  0  0
    7.7641    4.3301    0.0000 C   0  0  0  0  0  0  0  0  0  0  0  0
    6.3981    4.9641    0.0000 C   0  0  0  0  0  0  0  0  0  0  0  0
   21.1301   -4.9641    0.0000 C   0  0  0  0  0  0  0  0  0  0  0  0
    5.5320    2.4641    0.0000 C   0  0  0  0  0  0  0  0  0  0  0  0
   21.9961   -2.4641    0.0000 C   0  0  0  0  0  0  0  0  0  0  0  0
   18.7641   -2.5981    0.0000 C   0  0  0  0  0  0  0  0  0  0  0  0
    8.7641    2.5981    0.0000 C   0  0  0  0  0  0  0  0  0  0  0  0
    4.6381    3.9988    0.0000 C   0  0  0  0  0  0  0  0  0  0  0  0
   22.8901   -3.9988    0.0000 C   0  0  0  0  0  0  0  0  0  0  0  0
   21.9961   -5.4641    0.0000 C   0  0  0  0  0  0  0  0  0  0  0  0
    5.5320    5.4641    0.0000 C   0  0  0  0  0  0  0  0  0  0  0  0
    4.6381    1.9294    0.0000 C   0  0  0  0  0  0  0  0  0  0  0  0
   22.8901   -1.9294    0.0000 C   0  0  0  0  0  0  0  0  0  0  0  0
    9.7641    2.5981    0.0000 C   0  0  0  0  0  0  0  0  0  0  0  0
   17.7641   -2.5981    0.0000 C   0  0  0  0  0  0  0  0  0  0  0  0
   23.7962   -3.4849    0.0000 C   0  0  0  0  0  0  0  0  0  0  0  0
    3.7320    3.4849    0.0000 C   0  0  0  0  0  0  0  0  0  0  0  0
    3.7320    2.4433    0.0000 C   0  0  0  0  0  0  0  0  0  0  0  0
   23.7962   -2.4433    0.0000 C   0  0  0  0  0  0  0  0  0  0  0  0
    5.5320    6.4641    0.0000 C   0  0  0  0  0  0  0  0  0  0  0  0
   21.9961   -6.4641    0.0000 C   0  0  0  0  0  0  0  0  0  0  0  0
    4.6660    4.9641    0.0000 C   0  0  0  0  0  0  0  0  0  0  0  0
   22.8622   -4.9641    0.0000 C   0  0  0  0  0  0  0  0  0  0  0  0
    3.8000    5.4641    0.0000 C   0  0  0  0  0  0  0  0  0  0  0  0
   23.7282   -5.4641    0.0000 C   0  0  0  0  0  0  0  0  0  0  0  0
    4.6660    6.9641    0.0000 C   0  0  0  0  0  0  0  0  0  0  0  0
   22.8622   -6.9641    0.0000 C   0  0  0  0  0  0  0  0  0  0  0  0
   23.7282   -6.4641    0.0000 C   0  0  0  0  0  0  0  0  0  0  0  0
    3.8000    6.4641    0.0000 C   0  0  0  0  0  0  0  0  0  0  0  0
   11.2641    1.7320    0.0000 C   0  0  0  0  0  0  0  0  0  0  0  0
   16.2641   -1.7320    0.0000 C   0  0  0  0  0  0  0  0  0  0  0  0
    2.0000    3.4916    0.0000 C   0  0  0  0  0  0  0  0  0  0  0  0
   25.5282   -3.4916    0.0000 C   0  0  0  0  0  0  0  0  0  0  0  0
    2.8718    0.9400    0.0000 C   0  0  0  0  0  0  0  0  0  0  0  0
   24.6564   -0.9400    0.0000 C   0  0  0  0  0  0  0  0  0  0  0  0
   11.7641    0.8660    0.0000 C   0  0  0  0  0  0  0  0  0  0  0  0
   15.7641   -0.8660    0.0000 C   0  0  0  0  0  0  0  0  0  0  0  0
   14.7641   -0.8660    0.0000 C   0  0  0  0  0  0  0  0  0  0  0  0
   12.7641    0.8660    0.0000 C   0  0  0  0  0  0  0  0  0  0  0  0
   25.4603   -5.4641    0.0000 C   0  0  0  0  0  0  0  0  0  0  0  0
    2.0680    5.4641    0.0000 C   0  0  0  0  0  0  0  0  0  0  0  0
   21.9961   -8.4641    0.0000 C   0  0  0  0  0  0  0  0  0  0  0  0
    5.5320    8.4641    0.0000 C   0  0  0  0  0  0  0  0  0  0  0  0
   24.5942   -7.9641    0.0000 C   0  0  0  0  0  0  0  0  0  0  0  0
    2.9340    7.9641    0.0000 C   0  0  0  0  0  0  0  0  0  0  0  0
   14.2641    0.0000    0.0000 C   0  0  0  0  0  0  0  0  0  0  0  0
   13.2641    0.0000    0.0000 C   0  0  0  0  0  0  0  0  0  0  0  0
    6.9350    4.2741    0.0000 H   0  0  0  0  0  0  0  0  0  0  0  0
   20.5932   -4.2741    0.0000 H   0  0  0  0  0  0  0  0  0  0  0  0
    7.4762    1.8815    0.0000 H   0  0  0  0  0  0  0  0  0  0  0  0
    7.8747    2.5718    0.0000 H   0  0  0  0  0  0  0  0  0  0  0  0
   20.0520   -1.8815    0.0000 H   0  0  0  0  0  0  0  0  0  0  0  0
   19.6535   -2.5718    0.0000 H   0  0  0  0  0  0  0  0  0  0  0  0
   18.6815   -3.6762    0.0000 H   0  0  0  0  0  0  0  0  0  0  0  0
   19.3718   -4.0747    0.0000 H   0  0  0  0  0  0  0  0  0  0  0  0
    8.8467    3.6762    0.0000 H   0  0  0  0  0  0  0  0  0  0  0  0
    8.1564    4.0747    0.0000 H   0  0  0  0  0  0  0  0  0  0  0  0
    5.9995    1.4892    0.0000 H   0  0  0  0  0  0  0  0  0  0  0  0
    6.7966    1.4892    0.0000 H   0  0  0  0  0  0  0  0  0  0  0  0
   21.5287   -1.4892    0.0000 H   0  0  0  0  0  0  0  0  0  0  0  0
   20.7316   -1.4892    0.0000 H   0  0  0  0  0  0  0  0  0  0  0  0
   19.2272   -4.0201    0.0000 H   0  0  0  0  0  0  0  0  0  0  0  0
   19.4541   -4.8671    0.0000 H   0  0  0  0  0  0  0  0  0  0  0  0
   20.3010   -4.6401    0.0000 H   0  0  0  0  0  0  0  0  0  0  0  0
    8.3010    4.0201    0.0000 H   0  0  0  0  0  0  0  0  0  0  0  0
    8.0741    4.8671    0.0000 H   0  0  0  0  0  0  0  0  0  0  0  0
    7.2272    4.6401    0.0000 H   0  0  0  0  0  0  0  0  0  0  0  0
   20.5195   -4.8564    0.0000 H   0  0  0  0  0  0  0  0  0  0  0  0
   20.9181   -5.5467    0.0000 H   0  0  0  0  0  0  0  0  0  0  0  0
    7.0086    4.8564    0.0000 H   0  0  0  0  0  0  0  0  0  0  0  0
    6.6101    5.5467    0.0000 H   0  0  0  0  0  0  0  0  0  0  0  0
    8.1815    2.3860    0.0000 H   0  0  0  0  0  0  0  0  0  0  0  0
    8.8718    1.9875    0.0000 H   0  0  0  0  0  0  0  0  0  0  0  0
   19.3467   -2.3860    0.0000 H   0  0  0  0  0  0  0  0  0  0  0  0
   18.6564   -1.9875    0.0000 H   0  0  0  0  0  0  0  0  0  0  0  0
   22.8829   -4.6187    0.0000 H   0  0  0  0  0  0  0  0  0  0  0  0
    4.6453    4.6187    0.0000 H   0  0  0  0  0  0  0  0  0  0  0  0
   22.8829   -1.3095    0.0000 H   0  0  0  0  0  0  0  0  0  0  0  0
    4.6453    1.3095    0.0000 H   0  0  0  0  0  0  0  0  0  0  0  0
   17.1815   -2.8101    0.0000 H   0  0  0  0  0  0  0  0  0  0  0  0
   17.8718   -3.2087    0.0000 H   0  0  0  0  0  0  0  0  0  0  0  0
   10.3467    2.8101    0.0000 H   0  0  0  0  0  0  0  0  0  0  0  0
    9.6564    3.2087    0.0000 H   0  0  0  0  0  0  0  0  0  0  0  0
   21.4592   -6.7741    0.0000 H   0  0  0  0  0  0  0  0  0  0  0  0
    6.0690    6.7741    0.0000 H   0  0  0  0  0  0  0  0  0  0  0  0
   22.8622   -4.3441    0.0000 H   0  0  0  0  0  0  0  0  0  0  0  0
    4.6660    4.3441    0.0000 H   0  0  0  0  0  0  0  0  0  0  0  0
   25.8361   -4.0297    0.0000 H   0  0  0  0  0  0  0  0  0  0  0  0
   26.0663   -3.1837    0.0000 H   0  0  0  0  0  0  0  0  0  0  0  0
   25.2203   -2.9535    0.0000 H   0  0  0  0  0  0  0  0  0  0  0  0
    1.6921    4.0297    0.0000 H   0  0  0  0  0  0  0  0  0  0  0  0
    1.4619    3.1837    0.0000 H   0  0  0  0  0  0  0  0  0  0  0  0
    2.3079    2.9535    0.0000 H   0  0  0  0  0  0  0  0  0  0  0  0
    2.2518    0.9376    0.0000 H   0  0  0  0  0  0  0  0  0  0  0  0
    2.8742    0.3200    0.0000 H   0  0  0  0  0  0  0  0  0  0  0  0
    3.4918    0.9423    0.0000 H   0  0  0  0  0  0  0  0  0  0  0  0
   25.2764   -0.9376    0.0000 H   0  0  0  0  0  0  0  0  0  0  0  0
   24.6540   -0.3200    0.0000 H   0  0  0  0  0  0  0  0  0  0  0  0
   24.0364   -0.9423    0.0000 H   0  0  0  0  0  0  0  0  0  0  0  0
   11.1815    0.6540    0.0000 H   0  0  0  0  0  0  0  0  0  0  0  0
   11.8718    0.2554    0.0000 H   0  0  0  0  0  0  0  0  0  0  0  0
   16.3467   -0.6540    0.0000 H   0  0  0  0  0  0  0  0  0  0  0  0
   15.6564   -0.2554    0.0000 H   0  0  0  0  0  0  0  0  0  0  0  0
   14.1815   -1.0781    0.0000 H   0  0  0  0  0  0  0  0  0  0  0  0
   14.8718   -1.4766    0.0000 H   0  0  0  0  0  0  0  0  0  0  0  0
   13.3467    1.0781    0.0000 H   0  0  0  0  0  0  0  0  0  0  0  0
   12.6564    1.4766    0.0000 H   0  0  0  0  0  0  0  0  0  0  0  0
    2.3779    6.0010    0.0000 H   0  0  0  0  0  0  0  0  0  0  0  0
    1.5310    5.7741    0.0000 H   0  0  0  0  0  0  0  0  0  0  0  0
    1.7580    4.9272    0.0000 H   0  0  0  0  0  0  0  0  0  0  0  0
   25.1503   -6.0010    0.0000 H   0  0  0  0  0  0  0  0  0  0  0  0
   25.9972   -5.7741    0.0000 H   0  0  0  0  0  0  0  0  0  0  0  0
   25.7703   -4.9272    0.0000 H   0  0  0  0  0  0  0  0  0  0  0  0
    5.8421    7.9272    0.0000 H   0  0  0  0  0  0  0  0  0  0  0  0
    6.0690    8.7741    0.0000 H   0  0  0  0  0  0  0  0  0  0  0  0
    5.2220    9.0010    0.0000 H   0  0  0  0  0  0  0  0  0  0  0  0
   21.6861   -7.9272    0.0000 H   0  0  0  0  0  0  0  0  0  0  0  0
   21.4592   -8.7741    0.0000 H   0  0  0  0  0  0  0  0  0  0  0  0
   22.3061   -9.0010    0.0000 H   0  0  0  0  0  0  0  0  0  0  0  0
    3.5540    7.9641    0.0000 H   0  0  0  0  0  0  0  0  0  0  0  0
    2.9340    8.5841    0.0000 H   0  0  0  0  0  0  0  0  0  0  0  0
    2.3140    7.9641    0.0000 H   0  0  0  0  0  0  0  0  0  0  0  0
   23.9742   -7.9641    0.0000 H   0  0  0  0  0  0  0  0  0  0  0  0
   24.5942   -8.5841    0.0000 H   0  0  0  0  0  0  0  0  0  0  0  0
   25.2142   -7.9641    0.0000 H   0  0  0  0  0  0  0  0  0  0  0  0
   14.5741    0.5369    0.0000 H   0  0  0  0  0  0  0  0  0  0  0  0
   12.9541   -0.5369    0.0000 H   0  0  0  0  0  0  0  0  0  0  0  0
  1 41  1  0  0  0  0
  1 57  1  0  0  0  0
  2 42  1  0  0  0  0
  2 58  1  0  0  0  0
  3 44  1  0  0  0  0
  3 59  1  0  0  0  0
  4 43  1  0  0  0  0
  4 60  1  0  0  0  0
  5 46  1  0  0  0  0
  5 62  1  0  0  0  0
  6 45  1  0  0  0  0
  6 61  1  0  0  0  0
  7 52  1  0  0  0  0
  7 67  1  0  0  0  0
  8 51  1  0  0  0  0
  8 68  1  0  0  0  0
  9 54  1  0  0  0  0
  9 69  1  0  0  0  0
 10 53  1  0  0  0  0
 10 70  1  0  0  0  0
 11 55  1  0  0  0  0
 11 71  1  0  0  0  0
 12 56  1  0  0  0  0
 12 72  1  0  0  0  0
 13 58  2  0  0  0  0
 14 57  2  0  0  0  0
 15 18  1  0  0  0  0
 15 19  1  0  0  0  0
 15 22  1  0  0  0  0
 15 27  1  0  0  0  0
 16 17  1  0  0  0  0
 16 20  1  0  0  0  0
 16 21  1  0  0  0  0
 16 28  1  0  0  0  0
 17 24  1  0  0  0  0
 17 29  1  0  0  0  0
 17 75  1  0  0  0  0
 18 23  1  0  0  0  0
 18 30  1  0  0  0  0
 18 76  1  0  0  0  0
 19 25  1  0  0  0  0
 19 79  1  0  0  0  0
 19 80  1  0  0  0  0
 20 26  1  0  0  0  0
 20 77  1  0  0  0  0
 20 78  1  0  0  0  0
 21 34  1  0  0  0  0
 21 83  1  0  0  0  0
 21 84  1  0  0  0  0
 22 33  1  0  0  0  0
 22 81  1  0  0  0  0
 22 82  1  0  0  0  0
 23 32  1  0  0  0  0
 23 36  2  0  0  0  0
 24 31  1  0  0  0  0
 24 35  2  0  0  0  0
 25 32  1  0  0  0  0
 25 87  1  0  0  0  0
 25 88  1  0  0  0  0
 26 31  1  0  0  0  0
 26 85  1  0  0  0  0
 26 86  1  0  0  0  0
 27 89  1  0  0  0  0
 27 90  1  0  0  0  0
 27 91  1  0  0  0  0
 28 92  1  0  0  0  0
 28 93  1  0  0  0  0
 28 94  1  0  0  0  0
 29 38  1  0  0  0  0
 29 97  1  0  0  0  0
 29 98  1  0  0  0  0
 30 37  1  0  0  0  0
 30 95  1  0  0  0  0
 30 96  1  0  0  0  0
 31 39  2  0  0  0  0
 32 40  2  0  0  0  0
 33 42  1  0  0  0  0
 33101  1  0  0  0  0
 33102  1  0  0  0  0
 34 41  1  0  0  0  0
 34 99  1  0  0  0  0
 34100  1  0  0  0  0
 35 44  1  0  0  0  0
 35104  1  0  0  0  0
 36 43  1  0  0  0  0
 36103  1  0  0  0  0
 37 48  2  0  0  0  0
 37 50  1  0  0  0  0
 38 47  2  0  0  0  0
 38 49  1  0  0  0  0
 39 45  1  0  0  0  0
 39106  1  0  0  0  0
 40 46  1  0  0  0  0
 40105  1  0  0  0  0
 41109  1  0  0  0  0
 41110  1  0  0  0  0
 42107  1  0  0  0  0
 42108  1  0  0  0  0
 43 46  2  0  0  0  0
 44 45  2  0  0  0  0
 47 53  1  0  0  0  0
 47112  1  0  0  0  0
 48 54  1  0  0  0  0
 48111  1  0  0  0  0
 49 51  2  0  0  0  0
 49114  1  0  0  0  0
 50 52  2  0  0  0  0
 50113  1  0  0  0  0
 51 56  1  0  0  0  0
 52 55  1  0  0  0  0
 53 56  2  0  0  0  0
 54 55  2  0  0  0  0
 57 63  1  0  0  0  0
 58 64  1  0  0  0  0
 59118  1  0  0  0  0
 59119  1  0  0  0  0
 59120  1  0  0  0  0
 60115  1  0  0  0  0
 60116  1  0  0  0  0
 60117  1  0  0  0  0
 61121  1  0  0  0  0
 61122  1  0  0  0  0
 61123  1  0  0  0  0
 62124  1  0  0  0  0
 62125  1  0  0  0  0
 62126  1  0  0  0  0
 63 66  1  0  0  0  0
 63127  1  0  0  0  0
 63128  1  0  0  0  0
 64 65  1  0  0  0  0
 64129  1  0  0  0  0
 64130  1  0  0  0  0
 65 73  1  0  0  0  0
 65131  1  0  0  0  0
 65132  1  0  0  0  0
 66 74  1  0  0  0  0
 66133  1  0  0  0  0
 66134  1  0  0  0  0
 67138  1  0  0  0  0
 67139  1  0  0  0  0
 67140  1  0  0  0  0
 68135  1  0  0  0  0
 68136  1  0  0  0  0
 68137  1  0  0  0  0
 69144  1  0  0  0  0
 69145  1  0  0  0  0
 69146  1  0  0  0  0
 70141  1  0  0  0  0
 70142  1  0  0  0  0
 70143  1  0  0  0  0
 71150  1  0  0  0  0
 71151  1  0  0  0  0
 71152  1  0  0  0  0
 72147  1  0  0  0  0
 72148  1  0  0  0  0
 72149  1  0  0  0  0
 73 74  2  3  0  0  0
 73153  1  0  0  0  0
 74154  1  0  0  0  0
M  CHG  2  15   1  16   1
M  END
> <PUBCHEM_COMPOUND_CID>
104803

> <PUBCHEM_COMPOUND_CANONICALIZED>
1

> <PUBCHEM_CACTVS_COMPLEXITY>
1550

> <PUBCHEM_CACTVS_HBOND_ACCEPTOR>
14

> <PUBCHEM_CACTVS_HBOND_DONOR>
0

> <PUBCHEM_CACTVS_ROTATABLE_BOND>
30

> <PUBCHEM_CACTVS_SUBSKEYS>
AAADcfB/PAAAAAAAAAAAAAAAAAAAAAAAAAA8eMGCAAAAAACxVAAAHgAAAAAADCzhmAYyDoMABACIAiDSCACCCAAgIAAIiAEOjIgNJzKEsRuGMCpnwBWKqAew8P8OoAABCAAQQABAAAIQACCAAAAAAAAAAA==

> <PUBCHEM_IUPAC_OPENEYE_NAME>
bis[3-[6,7-dimethoxy-2-methyl-1-[(3,4,5-trimethoxyphenyl)methyl]-3,4-dihydro-1H-isoquinolin-2-ium-2-yl]propyl] oct-4-enedioate

> <PUBCHEM_IUPAC_CAS_NAME>
4-octenedioic acid bis[3-[6,7-dimethoxy-2-methyl-1-[(3,4,5-trimethoxyphenyl)methyl]-3,4-dihydro-1H-isoquinolin-2-ium-2-yl]propyl] ester

> <PUBCHEM_IUPAC_NAME>
bis[3-[6,7-dimethoxy-2-methyl-1-[(3,4,5-trimethoxyphenyl)methyl]-3,4-dihydro-1H-isoquinolin-2-ium-2-yl]propyl] oct-4-enedioate

> <PUBCHEM_IUPAC_SYSTEMATIC_NAME>
bis[3-[6,7-dimethoxy-2-methyl-1-[(3,4,5-trimethoxyphenyl)methyl]-3,4-dihydro-1H-isoquinolin-2-ium-2-yl]propyl] oct-4-enedioate

> <PUBCHEM_IUPAC_TRADITIONAL_NAME>
oct-4-enedioic acid bis[3-[6,7-dimethoxy-2-methyl-1-(3,4,5-trimethoxybenzyl)-3,4-dihydro-1H-isoquinolin-2-ium-2-yl]propyl] ester

> <PUBCHEM_IUPAC_INCHI>
InChI=1S/C58H80N2O14/c1-59(25-21-41-35-47(63-3)49(65-5)37-43(41)45(59)29-39-31-51(67-7)57(71-11)52(32-39)68-8)23-17-27-73-55(61)19-15-13-14-16-20-56(62)74-28-18-24-60(2)26-22-42-36-48(64-4)50(66-6)38-44(42)46(60)30-40-33-53(69-9)58(72-12)54(34-40)70-10/h13-14,31-38,45-46H,15-30H2,1-12H3/q+2

> <PUBCHEM_IUPAC_INCHIKEY>
ILVYCEVXHALBSC-UHFFFAOYSA-N

> <PUBCHEM_XLOGP3_AA>
8.7

> <PUBCHEM_EXACT_MASS>
1028.560955

> <PUBCHEM_MOLECULAR_FORMULA>
C58H80N2O14+2

> <PUBCHEM_MOLECULAR_WEIGHT>
1029.2608

> <PUBCHEM_OPENEYE_CAN_SMILES>
C[N+]1(CCC2=CC(=C(C=C2C1CC3=CC(=C(C(=C3)OC)OC)OC)OC)OC)CCCOC(=O)CCC=CCCC(=O)OCCC[N+]4(CCC5=CC(=C(C=C5C4CC6=CC(=C(C(=C6)OC)OC)OC)OC)OC)C

> <PUBCHEM_OPENEYE_ISO_SMILES>
C[N+]1(CCC2=CC(=C(C=C2C1CC3=CC(=C(C(=C3)OC)OC)OC)OC)OC)CCCOC(=O)CCC=CCCC(=O)OCCC[N+]4(CCC5=CC(=C(C=C5C4CC6=CC(=C(C(=C6)OC)OC)OC)OC)OC)C

> <PUBCHEM_CACTVS_TPSA>
145

> <PUBCHEM_MONOISOTOPIC_WEIGHT>
1028.560955

> <PUBCHEM_TOTAL_CHARGE>
2

> <PUBCHEM_HEAVY_ATOM_COUNT>
74

> <PUBCHEM_ATOM_DEF_STEREO_COUNT>
0

> <PUBCHEM_ATOM_UDEF_STEREO_COUNT>
4

> <PUBCHEM_BOND_DEF_STEREO_COUNT>
0

> <PUBCHEM_BOND_UDEF_STEREO_COUNT>
1

> <PUBCHEM_ISOTOPIC_ATOM_COUNT>
0

> <PUBCHEM_COMPONENT_COUNT>
1

> <PUBCHEM_CACTVS_TAUTO_COUNT>
1

> <PUBCHEM_COORDINATE_TYPE>
1
5
255

> <PUBCHEM_BONDANNOTATIONS>
15  27  3
16  28  3
17  29  3
18  30  3
23  32  8
23  36  8
24  31  8
24  35  8
31  39  8
32  40  8
35  44  8
36  43  8
37  48  8
37  50  8
38  47  8
38  49  8
39  45  8
40  46  8
43  46  8
44  45  8
47  53  8
48  54  8
49  51  8
50  52  8
51  56  8
52  55  8
53  56  8
54  55  8
73  74  1

$$$$
