104865
  -OEChem-12171208222D

 68 71  0     0  0  0  0  0  0999 V2000
    7.1962    1.7220    0.0000 S   0  0  0  0  0  0  0  0  0  0  0  0
    6.6962    2.5880    0.0000 O   0  0  0  0  0  0  0  0  0  0  0  0
    7.6962    0.8560    0.0000 O   0  0  0  0  0  0  0  0  0  0  0  0
    4.5981    0.2220    0.0000 O   0  0  0  0  0  0  0  0  0  0  0  0
    4.5981   -1.7780    0.0000 O   0  0  0  0  0  0  0  0  0  0  0  0
    2.8660    1.2220    0.0000 O   0  0  0  0  0  0  0  0  0  0  0  0
    3.7320   -4.2780    0.0000 O   0  0  0  0  0  0  0  0  0  0  0  0
    6.3301    1.2220    0.0000 N   0  0  0  0  0  0  0  0  0  0  0  0
    7.1962   -0.2780    0.0000 N   0  0  0  0  0  0  0  0  0  0  0  0
    6.3301   -1.7780    0.0000 N   0  0  0  0  0  0  0  0  0  0  0  0
    8.9282   -1.2780    0.0000 N   0  0  0  0  0  0  0  0  0  0  0  0
    8.0622   -2.7780    0.0000 N   0  0  0  0  0  0  0  0  0  0  0  0
   10.6603    3.7220    0.0000 C   0  0  0  0  0  0  0  0  0  0  0  0
    9.7942    3.2220    0.0000 C   0  0  0  0  0  0  0  0  0  0  0  0
   11.5263    4.2220    0.0000 C   0  0  0  0  0  0  0  0  0  0  0  0
   10.1603    4.5880    0.0000 C   0  0  0  0  0  0  0  0  0  0  0  0
   11.1603    2.8560    0.0000 C   0  0  0  0  0  0  0  0  0  0  0  0
    8.9282    3.7220    0.0000 C   0  0  0  0  0  0  0  0  0  0  0  0
    9.7942    2.2220    0.0000 C   0  0  0  0  0  0  0  0  0  0  0  0
    8.0622    2.2220    0.0000 C   0  0  0  0  0  0  0  0  0  0  0  0
    8.0622    3.2220    0.0000 C   0  0  0  0  0  0  0  0  0  0  0  0
    8.9282    1.7220    0.0000 C   0  0  0  0  0  0  0  0  0  0  0  0
    6.3301    0.2220    0.0000 C   0  0  0  0  0  0  0  0  0  0  0  0
    5.4641   -0.2780    0.0000 C   0  0  0  0  0  0  0  0  0  0  0  0
    5.4641   -1.2780    0.0000 C   0  0  0  0  0  0  0  0  0  0  0  0
    7.1962   -1.2780    0.0000 C   0  0  0  0  0  0  0  0  0  0  0  0
    3.7320   -0.2780    0.0000 C   0  0  0  0  0  0  0  0  0  0  0  0
    8.0622   -1.7780    0.0000 C   0  0  0  0  0  0  0  0  0  0  0  0
    4.5981   -2.7780    0.0000 C   0  0  0  0  0  0  0  0  0  0  0  0
    2.8660    0.2220    0.0000 C   0  0  0  0  0  0  0  0  0  0  0  0
    3.7320   -1.2780    0.0000 C   0  0  0  0  0  0  0  0  0  0  0  0
    2.0000   -0.2780    0.0000 C   0  0  0  0  0  0  0  0  0  0  0  0
    3.7320   -3.2780    0.0000 C   0  0  0  0  0  0  0  0  0  0  0  0
    2.8660   -1.7780    0.0000 C   0  0  0  0  0  0  0  0  0  0  0  0
    2.0000   -1.2780    0.0000 C   0  0  0  0  0  0  0  0  0  0  0  0
    9.7942   -1.7780    0.0000 C   0  0  0  0  0  0  0  0  0  0  0  0
    8.9282   -3.2780    0.0000 C   0  0  0  0  0  0  0  0  0  0  0  0
    9.7942   -2.7780    0.0000 C   0  0  0  0  0  0  0  0  0  0  0  0
    2.0000    1.7220    0.0000 C   0  0  0  0  0  0  0  0  0  0  0  0
   11.8363    3.6850    0.0000 H   0  0  0  0  0  0  0  0  0  0  0  0
   12.0632    4.5320    0.0000 H   0  0  0  0  0  0  0  0  0  0  0  0
   11.2163    4.7589    0.0000 H   0  0  0  0  0  0  0  0  0  0  0  0
   10.6972    4.8980    0.0000 H   0  0  0  0  0  0  0  0  0  0  0  0
    9.8503    5.1250    0.0000 H   0  0  0  0  0  0  0  0  0  0  0  0
    9.6233    4.2780    0.0000 H   0  0  0  0  0  0  0  0  0  0  0  0
   10.6233    2.5460    0.0000 H   0  0  0  0  0  0  0  0  0  0  0  0
   11.4703    2.3190    0.0000 H   0  0  0  0  0  0  0  0  0  0  0  0
   11.6972    3.1660    0.0000 H   0  0  0  0  0  0  0  0  0  0  0  0
    8.9282    4.3420    0.0000 H   0  0  0  0  0  0  0  0  0  0  0  0
   10.3312    1.9120    0.0000 H   0  0  0  0  0  0  0  0  0  0  0  0
    7.5252    3.5320    0.0000 H   0  0  0  0  0  0  0  0  0  0  0  0
    8.9282    1.1020    0.0000 H   0  0  0  0  0  0  0  0  0  0  0  0
    5.7932    1.5320    0.0000 H   0  0  0  0  0  0  0  0  0  0  0  0
    4.8101   -3.3606    0.0000 H   0  0  0  0  0  0  0  0  0  0  0  0
    5.2087   -2.6704    0.0000 H   0  0  0  0  0  0  0  0  0  0  0  0
    4.2690   -1.5880    0.0000 H   0  0  0  0  0  0  0  0  0  0  0  0
    1.4631    0.0320    0.0000 H   0  0  0  0  0  0  0  0  0  0  0  0
    3.5200   -2.6954    0.0000 H   0  0  0  0  0  0  0  0  0  0  0  0
    3.1215   -3.3857    0.0000 H   0  0  0  0  0  0  0  0  0  0  0  0
    2.8660   -2.3980    0.0000 H   0  0  0  0  0  0  0  0  0  0  0  0
    1.4631   -1.5880    0.0000 H   0  0  0  0  0  0  0  0  0  0  0  0
   10.3312   -1.4680    0.0000 H   0  0  0  0  0  0  0  0  0  0  0  0
    8.9282   -3.8980    0.0000 H   0  0  0  0  0  0  0  0  0  0  0  0
   10.3312   -3.0880    0.0000 H   0  0  0  0  0  0  0  0  0  0  0  0
    2.3100    2.2589    0.0000 H   0  0  0  0  0  0  0  0  0  0  0  0
    1.4631    2.0320    0.0000 H   0  0  0  0  0  0  0  0  0  0  0  0
    1.6900    1.1850    0.0000 H   0  0  0  0  0  0  0  0  0  0  0  0
    3.1951   -4.5880    0.0000 H   0  0  0  0  0  0  0  0  0  0  0  0
  1  2  2  0  0  0  0
  1  3  2  0  0  0  0
  1  8  1  0  0  0  0
  1 20  1  0  0  0  0
  4 24  1  0  0  0  0
  4 27  1  0  0  0  0
  5 25  1  0  0  0  0
  5 29  1  0  0  0  0
  6 30  1  0  0  0  0
  6 39  1  0  0  0  0
  7 33  1  0  0  0  0
  7 68  1  0  0  0  0
  8 23  1  0  0  0  0
  8 53  1  0  0  0  0
  9 23  1  0  0  0  0
  9 26  2  0  0  0  0
 10 25  2  0  0  0  0
 10 26  1  0  0  0  0
 11 28  2  0  0  0  0
 11 36  1  0  0  0  0
 12 28  1  0  0  0  0
 12 37  2  0  0  0  0
 13 14  1  0  0  0  0
 13 15  1  0  0  0  0
 13 16  1  0  0  0  0
 13 17  1  0  0  0  0
 14 18  2  0  0  0  0
 14 19  1  0  0  0  0
 15 40  1  0  0  0  0
 15 41  1  0  0  0  0
 15 42  1  0  0  0  0
 16 43  1  0  0  0  0
 16 44  1  0  0  0  0
 16 45  1  0  0  0  0
 17 46  1  0  0  0  0
 17 47  1  0  0  0  0
 17 48  1  0  0  0  0
 18 21  1  0  0  0  0
 18 49  1  0  0  0  0
 19 22  2  0  0  0  0
 19 50  1  0  0  0  0
 20 21  2  0  0  0  0
 20 22  1  0  0  0  0
 21 51  1  0  0  0  0
 22 52  1  0  0  0  0
 23 24  2  0  0  0  0
 24 25  1  0  0  0  0
 26 28  1  0  0  0  0
 27 30  1  0  0  0  0
 27 31  2  0  0  0  0
 29 33  1  0  0  0  0
 29 54  1  0  0  0  0
 29 55  1  0  0  0  0
 30 32  2  0  0  0  0
 31 34  1  0  0  0  0
 31 56  1  0  0  0  0
 32 35  1  0  0  0  0
 32 57  1  0  0  0  0
 33 58  1  0  0  0  0
 33 59  1  0  0  0  0
 34 35  2  0  0  0  0
 34 60  1  0  0  0  0
 35 61  1  0  0  0  0
 36 38  2  0  0  0  0
 36 62  1  0  0  0  0
 37 38  1  0  0  0  0
 37 63  1  0  0  0  0
 38 64  1  0  0  0  0
 39 65  1  0  0  0  0
 39 66  1  0  0  0  0
 39 67  1  0  0  0  0
M  END
> <PUBCHEM_COMPOUND_CID>
104865

> <PUBCHEM_COMPOUND_CANONICALIZED>
1

> <PUBCHEM_CACTVS_COMPLEXITY>
839

> <PUBCHEM_CACTVS_HBOND_ACCEPTOR>
11

> <PUBCHEM_CACTVS_HBOND_DONOR>
2

> <PUBCHEM_CACTVS_ROTATABLE_BOND>
11

> <PUBCHEM_CACTVS_SUBSKEYS>
AAADceB7uABAAAAAAAAAAAAAAAAAAAAAAAA8eIEAAAAAAAAB9AAAHgQQSAAADgTh2wY/t5ZIFgKgAjJnZHTCiDkxYqAJ2Dg/7JiPfqLEeVqfPCquwBvbqCeAwMAPkAAAAAAAQAAgAAAAAACAAAAAAAAAAA==

> <PUBCHEM_IUPAC_OPENEYE_NAME>
4-tert-butyl-N-[6-(2-hydroxyethoxy)-5-(2-methoxyphenoxy)-2-pyrimidin-2-yl-pyrimidin-4-yl]benzenesulfonamide

> <PUBCHEM_IUPAC_CAS_NAME>
4-tert-butyl-N-[6-(2-hydroxyethoxy)-5-(2-methoxyphenoxy)-2-(2-pyrimidinyl)-4-pyrimidinyl]benzenesulfonamide

> <PUBCHEM_IUPAC_NAME>
4-tert-butyl-N-[6-(2-hydroxyethoxy)-5-(2-methoxyphenoxy)-2-pyrimidin-2-ylpyrimidin-4-yl]benzenesulfonamide

> <PUBCHEM_IUPAC_SYSTEMATIC_NAME>
4-tert-butyl-N-[6-(2-hydroxyethyloxy)-5-(2-methoxyphenoxy)-2-pyrimidin-2-yl-pyrimidin-4-yl]benzenesulfonamide

> <PUBCHEM_IUPAC_TRADITIONAL_NAME>
4-tert-butyl-N-[6-(2-hydroxyethoxy)-5-(2-methoxyphenoxy)-2-(2-pyrimidyl)pyrimidin-4-yl]benzenesulfonamide

> <PUBCHEM_IUPAC_INCHI>
InChI=1S/C27H29N5O6S/c1-27(2,3)18-10-12-19(13-11-18)39(34,35)32-23-22(38-21-9-6-5-8-20(21)36-4)26(37-17-16-33)31-25(30-23)24-28-14-7-15-29-24/h5-15,33H,16-17H2,1-4H3,(H,30,31,32)

> <PUBCHEM_IUPAC_INCHIKEY>
GJPICJJJRGTNOD-UHFFFAOYSA-N

> <PUBCHEM_XLOGP3_AA>
3.8

> <PUBCHEM_EXACT_MASS>
551.183855

> <PUBCHEM_MOLECULAR_FORMULA>
C27H29N5O6S

> <PUBCHEM_MOLECULAR_WEIGHT>
551.61406

> <PUBCHEM_OPENEYE_CAN_SMILES>
CC(C)(C)C1=CC=C(C=C1)S(=O)(=O)NC2=C(C(=NC(=N2)C3=NC=CC=N3)OCCO)OC4=CC=CC=C4OC

> <PUBCHEM_OPENEYE_ISO_SMILES>
CC(C)(C)C1=CC=C(C=C1)S(=O)(=O)NC2=C(C(=NC(=N2)C3=NC=CC=N3)OCCO)OC4=CC=CC=C4OC

> <PUBCHEM_CACTVS_TPSA>
154

> <PUBCHEM_MONOISOTOPIC_WEIGHT>
551.183855

> <PUBCHEM_TOTAL_CHARGE>
0

> <PUBCHEM_HEAVY_ATOM_COUNT>
39

> <PUBCHEM_ATOM_DEF_STEREO_COUNT>
0

> <PUBCHEM_ATOM_UDEF_STEREO_COUNT>
0

> <PUBCHEM_BOND_DEF_STEREO_COUNT>
0

> <PUBCHEM_BOND_UDEF_STEREO_COUNT>
0

> <PUBCHEM_ISOTOPIC_ATOM_COUNT>
0

> <PUBCHEM_COMPONENT_COUNT>
1

> <PUBCHEM_CACTVS_TAUTO_COUNT>
3

> <PUBCHEM_COORDINATE_TYPE>
1
5
255

> <PUBCHEM_BONDANNOTATIONS>
10  25  8
10  26  8
11  28  8
11  36  8
12  28  8
12  37  8
14  18  8
14  19  8
18  21  8
19  22  8
20  21  8
20  22  8
23  24  8
24  25  8
27  30  8
27  31  8
30  32  8
31  34  8
32  35  8
34  35  8
36  38  8
37  38  8
9  23  8
9  26  8

$$$$
