11947681
  -OEChem-12171208262D

 13  6  0     0  0  0  0  0  0999 V2000
    0.2500    2.5000    0.0000 Fe  0  0  0  0  0  0  0  0  0  0  0  0
    0.0000    5.0000    0.0000 O   0  0  0  0  0  0  0  0  0  0  0  0
    1.0000    5.0000    0.0000 N   0  5  0  0  0  0  0  0  0  0  0  0
    3.0000    0.0000    0.0000 N   0  0  0  0  0  0  0  0  0  0  0  0
    3.0000    2.5000    0.0000 N   0  0  0  0  0  0  0  0  0  0  0  0
    3.0000    5.0000    0.0000 N   0  0  0  0  0  0  0  0  0  0  0  0
    3.0000    7.5000    0.0000 N   0  0  0  0  0  0  0  0  0  0  0  0
    6.0000    3.7500    0.0000 N   0  0  0  0  0  0  0  0  0  0  0  0
    4.0000    0.0000    0.0000 C   0  5  0  0  0  0  0  0  0  0  0  0
    4.0000    2.5000    0.0000 C   0  5  0  0  0  0  0  0  0  0  0  0
    4.0000    5.0000    0.0000 C   0  5  0  0  0  0  0  0  0  0  0  0
    4.0000    7.5000    0.0000 C   0  5  0  0  0  0  0  0  0  0  0  0
    7.0000    3.7500    0.0000 C   0  5  0  0  0  0  0  0  0  0  0  0
  2  3  2  0  0  0  0
  4  9  3  0  0  0  0
  5 10  3  0  0  0  0
  6 11  3  0  0  0  0
  7 12  3  0  0  0  0
  8 13  3  0  0  0  0
M  CHG  6   3  -1   9  -1  10  -1  11  -1  12  -1  13  -1
M  END
> <PUBCHEM_COMPOUND_CID>
11947681

> <PUBCHEM_COMPOUND_CANONICALIZED>
1

> <PUBCHEM_CACTVS_COMPLEXITY>
12

> <PUBCHEM_CACTVS_HBOND_ACCEPTOR>
12

> <PUBCHEM_CACTVS_HBOND_DONOR>
0

> <PUBCHEM_CACTVS_ROTATABLE_BOND>
0

> <PUBCHEM_CACTVS_SUBSKEYS>
AAADcQBjoAAAAAAgAAAAAAAAAAAAAAAAAAAAAAAAAAAAAAAAAAAABAAEAAAAAAAAAAAAAAAAAAARAAAAAAAAAAAAAAAAAAAAAAAAAAAAAAAAAAAAAAAAAAAAAAAAAAAAAAAAAAAAAAAAAAAAAAAAAAAAAA==

> <PUBCHEM_IUPAC_OPENEYE_NAME>
iron;nitroxyl anion;pentacyanide

> <PUBCHEM_IUPAC_CAS_NAME>
iron;nitroxyl anion;pentacyanide

> <PUBCHEM_IUPAC_NAME>
iron;nitroxyl anion;pentacyanide

> <PUBCHEM_IUPAC_SYSTEMATIC_NAME>
iron;oxoazanide;pentacyanide

> <PUBCHEM_IUPAC_TRADITIONAL_NAME>
iron;nitroxyl anion;pentacyanide

> <PUBCHEM_IUPAC_INCHI>
InChI=1S/5CN.Fe.NO/c5*1-2;;1-2/q5*-1;;-1

> <PUBCHEM_IUPAC_INCHIKEY>
UIBVHZWNUQLZQQ-UHFFFAOYSA-N

> <PUBCHEM_EXACT_MASS>
215.948296

> <PUBCHEM_MOLECULAR_FORMULA>
C5FeN6O-6

> <PUBCHEM_MOLECULAR_WEIGHT>
215.9381

> <PUBCHEM_OPENEYE_CAN_SMILES>
[C-]#N.[C-]#N.[C-]#N.[C-]#N.[C-]#N.[N-]=O.[Fe]

> <PUBCHEM_OPENEYE_ISO_SMILES>
[C-]#N.[C-]#N.[C-]#N.[C-]#N.[C-]#N.[N-]=O.[Fe]

> <PUBCHEM_CACTVS_TPSA>
137

> <PUBCHEM_MONOISOTOPIC_WEIGHT>
215.948296

> <PUBCHEM_TOTAL_CHARGE>
-6

> <PUBCHEM_HEAVY_ATOM_COUNT>
13

> <PUBCHEM_ATOM_DEF_STEREO_COUNT>
0

> <PUBCHEM_ATOM_UDEF_STEREO_COUNT>
0

> <PUBCHEM_BOND_DEF_STEREO_COUNT>
0

> <PUBCHEM_BOND_UDEF_STEREO_COUNT>
0

> <PUBCHEM_ISOTOPIC_ATOM_COUNT>
0

> <PUBCHEM_COMPONENT_COUNT>
7

> <PUBCHEM_CACTVS_TAUTO_COUNT>
1

> <PUBCHEM_COORDINATE_TYPE>
1
5
255

$$$$
