123606
  -OEChem-12171208222D

 48 50  0     0  0  0  0  0  0999 V2000
    4.4487   -0.6311    0.0000 S   0  0  0  0  0  0  0  0  0  0  0  0
    3.9487    0.2349    0.0000 O   0  0  0  0  0  0  0  0  0  0  0  0
    4.9487   -1.4971    0.0000 O   0  0  0  0  0  0  0  0  0  0  0  0
    3.5827   -1.1311    0.0000 N   0  0  0  0  0  0  0  0  0  0  0  0
    8.8590   -1.9358    0.0000 N   0  0  0  0  0  0  0  0  0  0  0  0
   10.4589    1.7809    0.0000 N   0  0  0  0  0  0  0  0  0  0  0  0
    2.6691   -0.7244    0.0000 C   0  0  0  0  0  0  0  0  0  0  0  0
    3.4782   -2.1256    0.0000 C   0  0  0  0  0  0  0  0  0  0  0  0
    2.0000   -1.4675    0.0000 C   0  0  0  0  0  0  0  0  0  0  0  0
    2.5000   -2.3335    0.0000 C   0  0  0  0  0  0  0  0  0  0  0  0
    5.3147   -0.1311    0.0000 C   0  0  0  0  0  0  0  0  0  0  0  0
    6.1808   -0.6311    0.0000 C   0  0  0  0  0  0  0  0  0  0  0  0
    7.9128   -0.6311    0.0000 C   0  0  0  0  0  0  0  0  0  0  0  0
    7.0468   -0.1311    0.0000 C   0  0  0  0  0  0  0  0  0  0  0  0
    8.8590   -0.3264    0.0000 C   0  0  0  0  0  0  0  0  0  0  0  0
    7.9128   -1.6311    0.0000 C   0  0  0  0  0  0  0  0  0  0  0  0
    6.1808   -1.6311    0.0000 C   0  0  0  0  0  0  0  0  0  0  0  0
    9.1697    0.6241    0.0000 C   0  0  0  0  0  0  0  0  0  0  0  0
    7.0468   -2.1311    0.0000 C   0  0  0  0  0  0  0  0  0  0  0  0
    9.4426   -1.1311    0.0000 C   0  0  0  0  0  0  0  0  0  0  0  0
   10.1482    0.8304    0.0000 C   0  0  0  0  0  0  0  0  0  0  0  0
   11.4374    1.9871    0.0000 C   0  0  0  0  0  0  0  0  0  0  0  0
    9.7910    2.5252    0.0000 C   0  0  0  0  0  0  0  0  0  0  0  0
    2.9791   -0.1874    0.0000 H   0  0  0  0  0  0  0  0  0  0  0  0
    2.1675   -0.3600    0.0000 H   0  0  0  0  0  0  0  0  0  0  0  0
    3.5430   -2.7422    0.0000 H   0  0  0  0  0  0  0  0  0  0  0  0
    4.0982   -2.1256    0.0000 H   0  0  0  0  0  0  0  0  0  0  0  0
    1.5851   -1.0068    0.0000 H   0  0  0  0  0  0  0  0  0  0  0  0
    1.4984   -1.8320    0.0000 H   0  0  0  0  0  0  0  0  0  0  0  0
    1.9336   -2.5857    0.0000 H   0  0  0  0  0  0  0  0  0  0  0  0
    2.6916   -2.9232    0.0000 H   0  0  0  0  0  0  0  0  0  0  0  0
    5.7133    0.3438    0.0000 H   0  0  0  0  0  0  0  0  0  0  0  0
    4.9162    0.3438    0.0000 H   0  0  0  0  0  0  0  0  0  0  0  0
    7.0468    0.4889    0.0000 H   0  0  0  0  0  0  0  0  0  0  0  0
    9.1491    1.2438    0.0000 H   0  0  0  0  0  0  0  0  0  0  0  0
    8.5559    0.7115    0.0000 H   0  0  0  0  0  0  0  0  0  0  0  0
    5.6438   -1.9411    0.0000 H   0  0  0  0  0  0  0  0  0  0  0  0
    7.0468   -2.7511    0.0000 H   0  0  0  0  0  0  0  0  0  0  0  0
   10.0626   -1.1311    0.0000 H   0  0  0  0  0  0  0  0  0  0  0  0
    9.0516   -2.5252    0.0000 H   0  0  0  0  0  0  0  0  0  0  0  0
   10.1688    0.2107    0.0000 H   0  0  0  0  0  0  0  0  0  0  0  0
   10.7620    0.7430    0.0000 H   0  0  0  0  0  0  0  0  0  0  0  0
   10.2525    2.9392    0.0000 H   0  0  0  0  0  0  0  0  0  0  0  0
    9.3770    2.9866    0.0000 H   0  0  0  0  0  0  0  0  0  0  0  0
    9.3295    2.1111    0.0000 H   0  0  0  0  0  0  0  0  0  0  0  0
   11.5652    1.3804    0.0000 H   0  0  0  0  0  0  0  0  0  0  0  0
   12.0440    2.1150    0.0000 H   0  0  0  0  0  0  0  0  0  0  0  0
   11.3095    2.5938    0.0000 H   0  0  0  0  0  0  0  0  0  0  0  0
  1  2  2  0  0  0  0
  1  3  2  0  0  0  0
  1  4  1  0  0  0  0
  1 11  1  0  0  0  0
  4  7  1  0  0  0  0
  4  8  1  0  0  0  0
  5 16  1  0  0  0  0
  5 20  1  0  0  0  0
  5 40  1  0  0  0  0
  6 21  1  0  0  0  0
  6 22  1  0  0  0  0
  6 23  1  0  0  0  0
  7  9  1  0  0  0  0
  7 24  1  0  0  0  0
  7 25  1  0  0  0  0
  8 10  1  0  0  0  0
  8 26  1  0  0  0  0
  8 27  1  0  0  0  0
  9 10  1  0  0  0  0
  9 28  1  0  0  0  0
  9 29  1  0  0  0  0
 10 30  1  0  0  0  0
 10 31  1  0  0  0  0
 11 12  1  0  0  0  0
 11 32  1  0  0  0  0
 11 33  1  0  0  0  0
 12 14  2  0  0  0  0
 12 17  1  0  0  0  0
 13 14  1  0  0  0  0
 13 15  1  0  0  0  0
 13 16  2  0  0  0  0
 14 34  1  0  0  0  0
 15 18  1  0  0  0  0
 15 20  2  0  0  0  0
 16 19  1  0  0  0  0
 17 19  2  0  0  0  0
 17 37  1  0  0  0  0
 18 21  1  0  0  0  0
 18 35  1  0  0  0  0
 18 36  1  0  0  0  0
 19 38  1  0  0  0  0
 20 39  1  0  0  0  0
 21 41  1  0  0  0  0
 21 42  1  0  0  0  0
 22 46  1  0  0  0  0
 22 47  1  0  0  0  0
 22 48  1  0  0  0  0
 23 43  1  0  0  0  0
 23 44  1  0  0  0  0
 23 45  1  0  0  0  0
M  END
> <PUBCHEM_COMPOUND_CID>
123606

> <PUBCHEM_COMPOUND_CANONICALIZED>
1

> <PUBCHEM_CACTVS_COMPLEXITY>
483

> <PUBCHEM_CACTVS_HBOND_ACCEPTOR>
4

> <PUBCHEM_CACTVS_HBOND_DONOR>
1

> <PUBCHEM_CACTVS_ROTATABLE_BOND>
6

> <PUBCHEM_CACTVS_SUBSKEYS>
AAADceB7MABAAAAAAAAAAAAAAAAAAWLAAAAwAAAAAAAAAFgB8AAAHAQQQAAADAjFXgS+wPPJkAKgAzRnRHDCgCAxAiAI2aA4ZJgIIOLAkZGEIAhgkADIyAcQgMAOiAACAAACAAAQAAQAAAQAAAAAAAAAAA==

> <PUBCHEM_IUPAC_OPENEYE_NAME>
N,N-dimethyl-2-[5-(pyrrolidin-1-ylsulfonylmethyl)-1H-indol-3-yl]ethanamine

> <PUBCHEM_IUPAC_CAS_NAME>
N,N-dimethyl-2-[5-(1-pyrrolidinylsulfonylmethyl)-1H-indol-3-yl]ethanamine

> <PUBCHEM_IUPAC_NAME>
N,N-dimethyl-2-[5-(pyrrolidin-1-ylsulfonylmethyl)-1H-indol-3-yl]ethanamine

> <PUBCHEM_IUPAC_SYSTEMATIC_NAME>
N,N-dimethyl-2-[5-(pyrrolidin-1-ylsulfonylmethyl)-1H-indol-3-yl]ethanamine

> <PUBCHEM_IUPAC_TRADITIONAL_NAME>
dimethyl-[2-[5-(pyrrolidinosulfonylmethyl)-1H-indol-3-yl]ethyl]amine

> <PUBCHEM_IUPAC_INCHI>
InChI=1S/C17H25N3O2S/c1-19(2)10-7-15-12-18-17-6-5-14(11-16(15)17)13-23(21,22)20-8-3-4-9-20/h5-6,11-12,18H,3-4,7-10,13H2,1-2H3

> <PUBCHEM_IUPAC_INCHIKEY>
WKEMJKQOLOHJLZ-UHFFFAOYSA-N

> <PUBCHEM_XLOGP3>
1.6

> <PUBCHEM_EXACT_MASS>
335.166748

> <PUBCHEM_MOLECULAR_FORMULA>
C17H25N3O2S

> <PUBCHEM_MOLECULAR_WEIGHT>
335.4643

> <PUBCHEM_OPENEYE_CAN_SMILES>
CN(C)CCC1=CNC2=C1C=C(C=C2)CS(=O)(=O)N3CCCC3

> <PUBCHEM_OPENEYE_ISO_SMILES>
CN(C)CCC1=CNC2=C1C=C(C=C2)CS(=O)(=O)N3CCCC3

> <PUBCHEM_CACTVS_TPSA>
64.8

> <PUBCHEM_MONOISOTOPIC_WEIGHT>
335.166748

> <PUBCHEM_TOTAL_CHARGE>
0

> <PUBCHEM_HEAVY_ATOM_COUNT>
23

> <PUBCHEM_ATOM_DEF_STEREO_COUNT>
0

> <PUBCHEM_ATOM_UDEF_STEREO_COUNT>
0

> <PUBCHEM_BOND_DEF_STEREO_COUNT>
0

> <PUBCHEM_BOND_UDEF_STEREO_COUNT>
0

> <PUBCHEM_ISOTOPIC_ATOM_COUNT>
0

> <PUBCHEM_COMPONENT_COUNT>
1

> <PUBCHEM_CACTVS_TAUTO_COUNT>
1

> <PUBCHEM_COORDINATE_TYPE>
1
5
255

> <PUBCHEM_BONDANNOTATIONS>
12  14  8
12  17  8
13  14  8
13  15  8
13  16  8
15  20  8
16  19  8
17  19  8
5  16  8
5  20  8

$$$$
