124087
  -OEChem-12171208222D

 41 44  0     0  0  0  0  0  0999 V2000
    2.0000    2.0417    0.0000 Cl  0  0  0  0  0  0  0  0  0  0  0  0
    5.8374   -2.2853    0.0000 N   0  0  0  0  0  0  0  0  0  0  0  0
    7.4909    0.4284    0.0000 N   0  0  0  0  0  0  0  0  0  0  0  0
    5.8374   -0.2853    0.0000 C   0  0  0  0  0  0  0  0  0  0  0  0
    5.8374    0.7147    0.0000 C   0  0  0  0  0  0  0  0  0  0  0  0
    6.7034   -0.7853    0.0000 C   0  0  0  0  0  0  0  0  0  0  0  0
    4.9714   -0.7853    0.0000 C   0  0  0  0  0  0  0  0  0  0  0  0
    6.7034   -1.7853    0.0000 C   0  0  0  0  0  0  0  0  0  0  0  0
    4.9714   -1.7853    0.0000 C   0  0  0  0  0  0  0  0  0  0  0  0
    4.9364    1.1486    0.0000 C   0  0  0  0  0  0  0  0  0  0  0  0
    6.7384    1.1486    0.0000 C   0  0  0  0  0  0  0  0  0  0  0  0
    5.3374    2.9053    0.0000 C   0  0  0  0  0  0  0  0  0  0  0  0
    4.7139    2.1235    0.0000 C   0  0  0  0  0  0  0  0  0  0  0  0
    6.3374    2.9053    0.0000 C   0  0  0  0  0  0  0  0  0  0  0  0
    6.9609    2.1235    0.0000 C   0  0  0  0  0  0  0  0  0  0  0  0
    4.1839    0.4284    0.0000 C   0  0  0  0  0  0  0  0  0  0  0  0
    3.7234    2.4458    0.0000 C   0  0  0  0  0  0  0  0  0  0  0  0
    7.9514    2.4458    0.0000 C   0  0  0  0  0  0  0  0  0  0  0  0
    3.1862    0.7277    0.0000 C   0  0  0  0  0  0  0  0  0  0  0  0
    2.9544    1.7433    0.0000 C   0  0  0  0  0  0  0  0  0  0  0  0
    8.7204    1.7432    0.0000 C   0  0  0  0  0  0  0  0  0  0  0  0
    8.4886    0.7277    0.0000 C   0  0  0  0  0  0  0  0  0  0  0  0
    7.3140   -0.8930    0.0000 H   0  0  0  0  0  0  0  0  0  0  0  0
    6.9155   -0.2027    0.0000 H   0  0  0  0  0  0  0  0  0  0  0  0
    4.7593   -0.2027    0.0000 H   0  0  0  0  0  0  0  0  0  0  0  0
    4.3608   -0.8930    0.0000 H   0  0  0  0  0  0  0  0  0  0  0  0
    4.3608   -1.6776    0.0000 H   0  0  0  0  0  0  0  0  0  0  0  0
    4.7593   -2.3679    0.0000 H   0  0  0  0  0  0  0  0  0  0  0  0
    6.9155   -2.3679    0.0000 H   0  0  0  0  0  0  0  0  0  0  0  0
    7.3140   -1.6777    0.0000 H   0  0  0  0  0  0  0  0  0  0  0  0
    5.4754    3.5098    0.0000 H   0  0  0  0  0  0  0  0  0  0  0  0
    4.7788    3.1743    0.0000 H   0  0  0  0  0  0  0  0  0  0  0  0
    6.8960    3.1743    0.0000 H   0  0  0  0  0  0  0  0  0  0  0  0
    6.1995    3.5098    0.0000 H   0  0  0  0  0  0  0  0  0  0  0  0
    5.8374   -2.9053    0.0000 H   0  0  0  0  0  0  0  0  0  0  0  0
    4.3288   -0.1744    0.0000 H   0  0  0  0  0  0  0  0  0  0  0  0
    3.5925    3.0518    0.0000 H   0  0  0  0  0  0  0  0  0  0  0  0
    8.0824    3.0518    0.0000 H   0  0  0  0  0  0  0  0  0  0  0  0
    2.7333    0.3043    0.0000 H   0  0  0  0  0  0  0  0  0  0  0  0
    9.3122    1.9282    0.0000 H   0  0  0  0  0  0  0  0  0  0  0  0
    8.9415    0.3042    0.0000 H   0  0  0  0  0  0  0  0  0  0  0  0
  1 20  1  0  0  0  0
  2  8  1  0  0  0  0
  2  9  1  0  0  0  0
  2 35  1  0  0  0  0
  3 11  1  0  0  0  0
  3 22  2  0  0  0  0
  4  5  2  0  0  0  0
  4  6  1  0  0  0  0
  4  7  1  0  0  0  0
  5 10  1  0  0  0  0
  5 11  1  0  0  0  0
  6  8  1  0  0  0  0
  6 23  1  0  0  0  0
  6 24  1  0  0  0  0
  7  9  1  0  0  0  0
  7 25  1  0  0  0  0
  7 26  1  0  0  0  0
  8 29  1  0  0  0  0
  8 30  1  0  0  0  0
  9 27  1  0  0  0  0
  9 28  1  0  0  0  0
 10 13  2  0  0  0  0
 10 16  1  0  0  0  0
 11 15  2  0  0  0  0
 12 13  1  0  0  0  0
 12 14  1  0  0  0  0
 12 31  1  0  0  0  0
 12 32  1  0  0  0  0
 13 17  1  0  0  0  0
 14 15  1  0  0  0  0
 14 33  1  0  0  0  0
 14 34  1  0  0  0  0
 15 18  1  0  0  0  0
 16 19  2  0  0  0  0
 16 36  1  0  0  0  0
 17 20  2  0  0  0  0
 17 37  1  0  0  0  0
 18 21  2  0  0  0  0
 18 38  1  0  0  0  0
 19 20  1  0  0  0  0
 19 39  1  0  0  0  0
 21 22  1  0  0  0  0
 21 40  1  0  0  0  0
 22 41  1  0  0  0  0
M  END
> <PUBCHEM_COMPOUND_CID>
124087

> <PUBCHEM_COMPOUND_CANONICALIZED>
1

> <PUBCHEM_CACTVS_COMPLEXITY>
425

> <PUBCHEM_CACTVS_HBOND_ACCEPTOR>
2

> <PUBCHEM_CACTVS_HBOND_DONOR>
1

> <PUBCHEM_CACTVS_ROTATABLE_BOND>
0

> <PUBCHEM_CACTVS_SUBSKEYS>
AAADceB7AAAEAAAAAAAAAAAAAAAAAAAAAAA8WIAABgAAAAABwAAAHAIQAAAADArBHiQ8gJLIEACgAzRnRACCgCAxByAI2KA4ZpgIIOLBk5GEIAhgkADIyAcQgMAOhAAAIAAQAAAIAABAACAAAAAAAAAAAA==

> <PUBCHEM_IUPAC_OPENEYE_NAME>
8-chloro-11-(4-piperidylidene)-5,6-dihydrobenzo[1,2]cyclohepta[2,4-b]pyridine

> <PUBCHEM_IUPAC_CAS_NAME>
8-chloro-11-(4-piperidinylidene)-5,6-dihydrobenzo[1,2]cyclohepta[2,4-b]pyridine

> <PUBCHEM_IUPAC_NAME>
8-chloro-11-piperidin-4-ylidene-5,6-dihydrobenzo[1,2]cyclohepta[2,4-b]pyridine

> <PUBCHEM_IUPAC_SYSTEMATIC_NAME>
8-chloranyl-11-piperidin-4-ylidene-5,6-dihydrobenzo[1,2]cyclohepta[2,4-b]pyridine

> <PUBCHEM_IUPAC_TRADITIONAL_NAME>
8-chloro-11-(4-piperidylidene)-5,6-dihydrobenzo[1,2]cyclohepta[2,4-b]pyridine

> <PUBCHEM_IUPAC_INCHI>
InChI=1S/C19H19ClN2/c20-16-5-6-17-15(12-16)4-3-14-2-1-9-22-19(14)18(17)13-7-10-21-11-8-13/h1-2,5-6,9,12,21H,3-4,7-8,10-11H2

> <PUBCHEM_IUPAC_INCHIKEY>
JAUOIFJMECXRGI-UHFFFAOYSA-N

> <PUBCHEM_XLOGP3>
4.5

> <PUBCHEM_EXACT_MASS>
310.123676

> <PUBCHEM_MOLECULAR_FORMULA>
C19H19ClN2

> <PUBCHEM_MOLECULAR_WEIGHT>
310.82056

> <PUBCHEM_OPENEYE_CAN_SMILES>
C1CC2=C(C=CC(=C2)Cl)C(=C3CCNCC3)C4=C1C=CC=N4

> <PUBCHEM_OPENEYE_ISO_SMILES>
C1CC2=C(C=CC(=C2)Cl)C(=C3CCNCC3)C4=C1C=CC=N4

> <PUBCHEM_CACTVS_TPSA>
24.9

> <PUBCHEM_MONOISOTOPIC_WEIGHT>
310.123676

> <PUBCHEM_TOTAL_CHARGE>
0

> <PUBCHEM_HEAVY_ATOM_COUNT>
22

> <PUBCHEM_ATOM_DEF_STEREO_COUNT>
0

> <PUBCHEM_ATOM_UDEF_STEREO_COUNT>
0

> <PUBCHEM_BOND_DEF_STEREO_COUNT>
0

> <PUBCHEM_BOND_UDEF_STEREO_COUNT>
0

> <PUBCHEM_ISOTOPIC_ATOM_COUNT>
0

> <PUBCHEM_COMPONENT_COUNT>
1

> <PUBCHEM_CACTVS_TAUTO_COUNT>
1

> <PUBCHEM_COORDINATE_TYPE>
1
5
255

> <PUBCHEM_BONDANNOTATIONS>
10  13  8
10  16  8
11  15  8
13  17  8
15  18  8
16  19  8
17  20  8
18  21  8
19  20  8
21  22  8
3  11  8
3  22  8

$$$$
