131536
  -OEChem-12171208232D

 75 77  0     1  0  0  0  0  0999 V2000
    4.5981   -1.4462    0.0000 S   0  0  0  0  0  0  0  0  0  0  0  0
    4.0981    2.4198    0.0000 P   0  0  0  0  0  0  0  0  0  0  0  0
    4.5981    1.5538    0.0000 O   0  0  0  0  0  0  0  0  0  0  0  0
    7.1962    4.0538    0.0000 O   0  0  0  0  0  0  0  0  0  0  0  0
    9.6448    4.8902    0.0000 O   0  0  0  0  0  0  0  0  0  0  0  0
    5.5981   -1.4462    0.0000 O   0  0  0  0  0  0  0  0  0  0  0  0
    3.5981   -1.4462    0.0000 O   0  0  0  0  0  0  0  0  0  0  0  0
    3.5981    3.2858    0.0000 O   0  0  0  0  0  0  0  0  0  0  0  0
    3.2320    1.9198    0.0000 O   0  0  0  0  0  0  0  0  0  0  0  0
    8.0622    2.5538    0.0000 O   0  0  0  0  0  0  0  0  0  0  0  0
    4.9641    2.9198    0.0000 O   0  0  0  0  0  0  0  0  0  0  0  0
    4.5981   -0.4462    0.0000 N   0  0  3  0  0  0  0  0  0  0  0  0
    6.3301    2.5538    0.0000 N   0  0  0  0  0  0  0  0  0  0  0  0
    4.5981   -5.4462    0.0000 N   0  0  0  0  0  0  0  0  0  0  0  0
    5.4641    1.0538    0.0000 C   0  0  1  0  0  0  0  0  0  0  0  0
    6.3301    1.5538    0.0000 C   0  0  2  0  0  0  0  0  0  0  0  0
    5.4641    0.0538    0.0000 C   0  0  0  0  0  0  0  0  0  0  0  0
    3.7320    0.0538    0.0000 C   0  0  0  0  0  0  0  0  0  0  0  0
    7.1962    1.0538    0.0000 C   0  0  0  0  0  0  0  0  0  0  0  0
    2.8660   -0.4462    0.0000 C   0  0  0  0  0  0  0  0  0  0  0  0
    7.1962    0.0538    0.0000 C   0  0  0  0  0  0  0  0  0  0  0  0
    8.0622    4.5538    0.0000 C   0  0  1  0  0  0  0  0  0  0  0  0
    4.5981   -2.4462    0.0000 C   0  0  0  0  0  0  0  0  0  0  0  0
    2.0000    0.0538    0.0000 C   0  0  0  0  0  0  0  0  0  0  0  0
    2.8660   -1.4462    0.0000 C   0  0  0  0  0  0  0  0  0  0  0  0
    8.1667    5.5483    0.0000 C   0  0  0  0  0  0  0  0  0  0  0  0
    7.1962    3.0538    0.0000 C   0  0  0  0  0  0  0  0  0  0  0  0
    8.9757    4.1470    0.0000 C   0  0  0  0  0  0  0  0  0  0  0  0
    9.1448    5.7562    0.0000 C   0  0  0  0  0  0  0  0  0  0  0  0
    8.0622   -0.4462    0.0000 C   0  0  0  0  0  0  0  0  0  0  0  0
    6.3301   -0.4462    0.0000 C   0  0  0  0  0  0  0  0  0  0  0  0
    3.7320   -2.9462    0.0000 C   0  0  0  0  0  0  0  0  0  0  0  0
    5.4641   -2.9462    0.0000 C   0  0  0  0  0  0  0  0  0  0  0  0
    8.0622   -1.4462    0.0000 C   0  0  0  0  0  0  0  0  0  0  0  0
    6.3301   -1.4462    0.0000 C   0  0  0  0  0  0  0  0  0  0  0  0
    3.7320   -3.9462    0.0000 C   0  0  0  0  0  0  0  0  0  0  0  0
    5.4641   -3.9462    0.0000 C   0  0  0  0  0  0  0  0  0  0  0  0
    7.1962   -1.9462    0.0000 C   0  0  0  0  0  0  0  0  0  0  0  0
    4.5981   -4.4462    0.0000 C   0  0  0  0  0  0  0  0  0  0  0  0
    5.4641    1.6738    0.0000 H   0  0  0  0  0  0  0  0  0  0  0  0
    6.8671    1.8638    0.0000 H   0  0  0  0  0  0  0  0  0  0  0  0
    5.6762   -0.5288    0.0000 H   0  0  0  0  0  0  0  0  0  0  0  0
    6.0747    0.1614    0.0000 H   0  0  0  0  0  0  0  0  0  0  0  0
    4.1306    0.5287    0.0000 H   0  0  0  0  0  0  0  0  0  0  0  0
    3.3335    0.5287    0.0000 H   0  0  0  0  0  0  0  0  0  0  0  0
    7.8067    0.9461    0.0000 H   0  0  0  0  0  0  0  0  0  0  0  0
    7.4082    1.6364    0.0000 H   0  0  0  0  0  0  0  0  0  0  0  0
    2.8660    0.1738    0.0000 H   0  0  0  0  0  0  0  0  0  0  0  0
    6.0201    3.0907    0.0000 H   0  0  0  0  0  0  0  0  0  0  0  0
    7.5422    4.8915    0.0000 H   0  0  0  0  0  0  0  0  0  0  0  0
    2.2460   -1.4462    0.0000 H   0  0  0  0  0  0  0  0  0  0  0  0
    2.8660   -2.0662    0.0000 H   0  0  0  0  0  0  0  0  0  0  0  0
    3.4860   -1.4462    0.0000 H   0  0  0  0  0  0  0  0  0  0  0  0
    2.3100    0.5907    0.0000 H   0  0  0  0  0  0  0  0  0  0  0  0
    1.4631    0.3638    0.0000 H   0  0  0  0  0  0  0  0  0  0  0  0
    1.6900   -0.4832    0.0000 H   0  0  0  0  0  0  0  0  0  0  0  0
    8.1019    6.1649    0.0000 H   0  0  0  0  0  0  0  0  0  0  0  0
    7.5467    5.5483    0.0000 H   0  0  0  0  0  0  0  0  0  0  0  0
    8.6657    3.6101    0.0000 H   0  0  0  0  0  0  0  0  0  0  0  0
    9.4773    3.7826    0.0000 H   0  0  0  0  0  0  0  0  0  0  0  0
    9.7112    6.0084    0.0000 H   0  0  0  0  0  0  0  0  0  0  0  0
    8.9533    6.3459    0.0000 H   0  0  0  0  0  0  0  0  0  0  0  0
    8.5991   -0.1362    0.0000 H   0  0  0  0  0  0  0  0  0  0  0  0
    5.7932   -0.1362    0.0000 H   0  0  0  0  0  0  0  0  0  0  0  0
    3.1951   -2.6362    0.0000 H   0  0  0  0  0  0  0  0  0  0  0  0
    6.0010   -2.6362    0.0000 H   0  0  0  0  0  0  0  0  0  0  0  0
    8.5991   -1.7562    0.0000 H   0  0  0  0  0  0  0  0  0  0  0  0
    5.7932   -1.7562    0.0000 H   0  0  0  0  0  0  0  0  0  0  0  0
    3.1951   -4.2562    0.0000 H   0  0  0  0  0  0  0  0  0  0  0  0
    6.0010   -4.2562    0.0000 H   0  0  0  0  0  0  0  0  0  0  0  0
    7.1962   -2.5662    0.0000 H   0  0  0  0  0  0  0  0  0  0  0  0
    2.9781    3.2858    0.0000 H   0  0  0  0  0  0  0  0  0  0  0  0
    2.6951    2.2298    0.0000 H   0  0  0  0  0  0  0  0  0  0  0  0
    4.0611   -5.7562    0.0000 H   0  0  0  0  0  0  0  0  0  0  0  0
    5.1350   -5.7562    0.0000 H   0  0  0  0  0  0  0  0  0  0  0  0
  1  6  2  0  0  0  0
  1  7  2  0  0  0  0
  1 12  1  0  0  0  0
  1 23  1  0  0  0  0
  2  3  1  0  0  0  0
  2  8  1  0  0  0  0
  2  9  1  0  0  0  0
  2 11  2  0  0  0  0
 15  3  1  1  0  0  0
 22  4  1  1  0  0  0
  4 27  1  0  0  0  0
  5 28  1  0  0  0  0
  5 29  1  0  0  0  0
  8 72  1  0  0  0  0
  9 73  1  0  0  0  0
 10 27  2  0  0  0  0
 12 17  1  0  0  0  0
 12 18  1  0  0  0  0
 16 13  1  1  0  0  0
 13 27  1  0  0  0  0
 13 49  1  0  0  0  0
 14 39  1  0  0  0  0
 14 74  1  0  0  0  0
 14 75  1  0  0  0  0
 15 16  1  0  0  0  0
 15 17  1  0  0  0  0
 15 40  1  0  0  0  0
 16 19  1  0  0  0  0
 16 41  1  0  0  0  0
 17 42  1  0  0  0  0
 17 43  1  0  0  0  0
 18 20  1  0  0  0  0
 18 44  1  0  0  0  0
 18 45  1  0  0  0  0
 19 21  1  0  0  0  0
 19 46  1  0  0  0  0
 19 47  1  0  0  0  0
 20 24  1  0  0  0  0
 20 25  1  0  0  0  0
 20 48  1  0  0  0  0
 21 30  2  0  0  0  0
 21 31  1  0  0  0  0
 22 26  1  0  0  0  0
 22 28  1  0  0  0  0
 22 50  1  0  0  0  0
 23 32  2  0  0  0  0
 23 33  1  0  0  0  0
 24 54  1  0  0  0  0
 24 55  1  0  0  0  0
 24 56  1  0  0  0  0
 25 51  1  0  0  0  0
 25 52  1  0  0  0  0
 25 53  1  0  0  0  0
 26 29  1  0  0  0  0
 26 57  1  0  0  0  0
 26 58  1  0  0  0  0
 28 59  1  0  0  0  0
 28 60  1  0  0  0  0
 29 61  1  0  0  0  0
 29 62  1  0  0  0  0
 30 34  1  0  0  0  0
 30 63  1  0  0  0  0
 31 35  2  0  0  0  0
 31 64  1  0  0  0  0
 32 36  1  0  0  0  0
 32 65  1  0  0  0  0
 33 37  2  0  0  0  0
 33 66  1  0  0  0  0
 34 38  2  0  0  0  0
 34 67  1  0  0  0  0
 35 38  1  0  0  0  0
 35 68  1  0  0  0  0
 36 39  2  0  0  0  0
 36 69  1  0  0  0  0
 37 39  1  0  0  0  0
 37 70  1  0  0  0  0
 38 71  1  0  0  0  0
M  END
> <PUBCHEM_COMPOUND_CID>
131536

> <PUBCHEM_COMPOUND_CANONICALIZED>
1

> <PUBCHEM_CACTVS_COMPLEXITY>
912

> <PUBCHEM_CACTVS_HBOND_ACCEPTOR>
11

> <PUBCHEM_CACTVS_HBOND_DONOR>
4

> <PUBCHEM_CACTVS_ROTATABLE_BOND>
14

> <PUBCHEM_CACTVS_SUBSKEYS>
AAADcfB7PAJAAAAAAAAAAAAAAAAAASAAAAAwYAAAAAAAAAABQAAAHgQQSCAADTzh2AYyyYLABRKIQiRCWPDCABAgAgAIiJgIZIkLICKA0ZGOIABllgCayAeQwKAOAAQAAAAAAAAACAAAAAAAAAAAAAAAAA==

> <PUBCHEM_IUPAC_OPENEYE_NAME>
[(3S)-tetrahydrofuran-3-yl] N-[(1S,2R)-3-[(4-aminophenyl)sulfonyl-isobutyl-amino]-1-benzyl-2-phosphonooxy-propyl]carbamate

> <PUBCHEM_IUPAC_CAS_NAME>
N-[(2S,3R)-4-[(4-aminophenyl)sulfonyl-(2-methylpropyl)amino]-1-phenyl-3-phosphonooxybutan-2-yl]carbamic acid [(3S)-3-oxolanyl] ester

> <PUBCHEM_IUPAC_NAME>
[(3S)-oxolan-3-yl] N-[(2S,3R)-4-[(4-aminophenyl)sulfonyl-(2-methylpropyl)amino]-1-phenyl-3-phosphonooxybutan-2-yl]carbamate

> <PUBCHEM_IUPAC_SYSTEMATIC_NAME>
[(3S)-oxolan-3-yl] N-[(2S,3R)-4-[(4-aminophenyl)sulfonyl-(2-methylpropyl)amino]-1-phenyl-3-phosphonooxy-butan-2-yl]carbamate

> <PUBCHEM_IUPAC_TRADITIONAL_NAME>
N-[(1S,2R)-1-benzyl-3-[isobutyl(sulfanilyl)amino]-2-phosphonooxy-propyl]carbamic acid [(3S)-tetrahydrofuran-3-yl] ester

> <PUBCHEM_IUPAC_INCHI>
InChI=1S/C25H36N3O9PS/c1-18(2)15-28(39(33,34)22-10-8-20(26)9-11-22)16-24(37-38(30,31)32)23(14-19-6-4-3-5-7-19)27-25(29)36-21-12-13-35-17-21/h3-11,18,21,23-24H,12-17,26H2,1-2H3,(H,27,29)(H2,30,31,32)/t21-,23-,24+/m0/s1

> <PUBCHEM_IUPAC_INCHIKEY>
MLBVMOWEQCZNCC-OEMFJLHTSA-N

> <PUBCHEM_XLOGP3_AA>
1.8

> <PUBCHEM_EXACT_MASS>
585.190987

> <PUBCHEM_MOLECULAR_FORMULA>
C25H36N3O9PS

> <PUBCHEM_MOLECULAR_WEIGHT>
585.606802

> <PUBCHEM_OPENEYE_CAN_SMILES>
CC(C)CN(CC(C(CC1=CC=CC=C1)NC(=O)OC2CCOC2)OP(=O)(O)O)S(=O)(=O)C3=CC=C(C=C3)N

> <PUBCHEM_OPENEYE_ISO_SMILES>
CC(C)CN(C[C@H]([C@H](CC1=CC=CC=C1)NC(=O)O[C@H]2CCOC2)OP(=O)(O)O)S(=O)(=O)C3=CC=C(C=C3)N

> <PUBCHEM_CACTVS_TPSA>
186

> <PUBCHEM_MONOISOTOPIC_WEIGHT>
585.190987

> <PUBCHEM_TOTAL_CHARGE>
0

> <PUBCHEM_HEAVY_ATOM_COUNT>
39

> <PUBCHEM_ATOM_DEF_STEREO_COUNT>
3

> <PUBCHEM_ATOM_UDEF_STEREO_COUNT>
0

> <PUBCHEM_BOND_DEF_STEREO_COUNT>
0

> <PUBCHEM_BOND_UDEF_STEREO_COUNT>
0

> <PUBCHEM_ISOTOPIC_ATOM_COUNT>
0

> <PUBCHEM_COMPONENT_COUNT>
1

> <PUBCHEM_CACTVS_TAUTO_COUNT>
2

> <PUBCHEM_COORDINATE_TYPE>
1
5
255

> <PUBCHEM_BONDANNOTATIONS>
16  13  5
21  30  8
21  31  8
23  32  8
23  33  8
15  3  5
30  34  8
31  35  8
32  36  8
33  37  8
34  38  8
35  38  8
36  39  8
37  39  8
22  4  5

$$$$
