147912
  -OEChem-12171208232D

 93 99  0     1  0  0  0  0  0999 V2000
    3.4403   -3.4055    0.0000 F   0  0  0  0  0  0  0  0  0  0  0  0
    5.1724   -6.4055    0.0000 F   0  0  0  0  0  0  0  0  0  0  0  0
    4.8633   -1.4545    0.0000 O   0  0  0  0  0  0  0  0  0  0  0  0
    7.6403   -0.1673    0.0000 O   0  0  0  0  0  0  0  0  0  0  0  0
   20.6300    5.3874    0.0000 O   0  0  0  0  0  0  0  0  0  0  0  0
   16.8721    4.6830    0.0000 O   0  0  0  0  0  0  0  0  0  0  0  0
    3.4782   -2.0454    0.0000 N   0  0  0  0  0  0  0  0  0  0  0  0
    3.5827   -1.0509    0.0000 N   0  0  0  0  0  0  0  0  0  0  0  0
   11.4446    1.0688    0.0000 N   0  0  0  0  0  0  0  0  0  0  0  0
   13.3467    1.6868    0.0000 N   0  0  0  0  0  0  0  0  0  0  0  0
    2.0000   -1.3873    0.0000 N   0  0  0  0  0  0  0  0  0  0  0  0
   18.4599    3.8739    0.0000 N   0  0  0  0  0  0  0  0  0  0  0  0
   17.1509    2.9229    0.0000 N   0  0  0  0  0  0  0  0  0  0  0  0
   18.7689    2.9229    0.0000 N   0  0  0  0  0  0  0  0  0  0  0  0
    5.1724   -2.4055    0.0000 C   0  0  1  0  0  0  0  0  0  0  0  0
    6.1724   -2.4055    0.0000 C   0  0  0  0  0  0  0  0  0  0  0  0
    6.4814   -1.4545    0.0000 C   0  0  3  0  0  0  0  0  0  0  0  0
    5.6724   -0.8667    0.0000 C   0  0  0  0  0  0  0  0  0  0  0  0
    4.2213   -2.7145    0.0000 C   0  0  0  0  0  0  0  0  0  0  0  0
    5.1724   -3.4055    0.0000 C   0  0  0  0  0  0  0  0  0  0  0  0
    7.4324   -1.1454    0.0000 C   0  0  0  0  0  0  0  0  0  0  0  0
    4.3063   -3.9055    0.0000 C   0  0  0  0  0  0  0  0  0  0  0  0
    6.0384   -3.9055    0.0000 C   0  0  0  0  0  0  0  0  0  0  0  0
    4.3063   -4.9055    0.0000 C   0  0  0  0  0  0  0  0  0  0  0  0
    6.0384   -4.9055    0.0000 C   0  0  0  0  0  0  0  0  0  0  0  0
    2.5000   -2.2533    0.0000 C   0  0  0  0  0  0  0  0  0  0  0  0
    8.5914    0.1417    0.0000 C   0  0  0  0  0  0  0  0  0  0  0  0
    5.1724   -5.4055    0.0000 C   0  0  0  0  0  0  0  0  0  0  0  0
   11.6525    2.0469    0.0000 C   0  0  0  0  0  0  0  0  0  0  0  0
   12.1877    0.3996    0.0000 C   0  0  0  0  0  0  0  0  0  0  0  0
   12.6035    2.3559    0.0000 C   0  0  0  0  0  0  0  0  0  0  0  0
   13.1388    0.7087    0.0000 C   0  0  0  0  0  0  0  0  0  0  0  0
   10.4935    0.7598    0.0000 C   0  0  0  0  0  0  0  0  0  0  0  0
    9.3345   -0.5274    0.0000 C   0  0  0  0  0  0  0  0  0  0  0  0
    8.7993    1.1199    0.0000 C   0  0  0  0  0  0  0  0  0  0  0  0
    2.6691   -0.6441    0.0000 C   0  0  0  0  0  0  0  0  0  0  0  0
   10.2856   -0.2184    0.0000 C   0  0  0  0  0  0  0  0  0  0  0  0
    9.7504    1.4289    0.0000 C   0  0  0  0  0  0  0  0  0  0  0  0
   14.2977    1.9958    0.0000 C   0  0  0  0  0  0  0  0  0  0  0  0
   19.0477    4.6830    0.0000 C   0  0  2  0  0  0  0  0  0  0  0  0
   15.0409    1.3267    0.0000 C   0  0  0  0  0  0  0  0  0  0  0  0
   14.5056    2.9740    0.0000 C   0  0  0  0  0  0  0  0  0  0  0  0
   20.0422    4.5784    0.0000 C   0  0  2  0  0  0  0  0  0  0  0  0
   16.1998    2.6139    0.0000 C   0  0  0  0  0  0  0  0  0  0  0  0
   18.6410    5.5965    0.0000 C   0  0  0  0  0  0  0  0  0  0  0  0
   15.9919    1.6357    0.0000 C   0  0  0  0  0  0  0  0  0  0  0  0
   15.4567    3.2830    0.0000 C   0  0  0  0  0  0  0  0  0  0  0  0
   17.4599    3.8739    0.0000 C   0  0  0  0  0  0  0  0  0  0  0  0
   17.9599    2.3351    0.0000 C   0  0  0  0  0  0  0  0  0  0  0  0
   20.4490    3.6649    0.0000 C   0  0  0  0  0  0  0  0  0  0  0  0
   19.2288    6.4055    0.0000 C   0  0  0  0  0  0  0  0  0  0  0  0
    6.1075   -3.0221    0.0000 H   0  0  0  0  0  0  0  0  0  0  0  0
    6.7788   -2.5344    0.0000 H   0  0  0  0  0  0  0  0  0  0  0  0
    7.0824   -2.0555    0.0000 H   0  0  0  0  0  0  0  0  0  0  0  0
    6.0872   -0.4059    0.0000 H   0  0  0  0  0  0  0  0  0  0  0  0
    5.2575   -0.4059    0.0000 H   0  0  0  0  0  0  0  0  0  0  0  0
    3.7327   -3.0962    0.0000 H   0  0  0  0  0  0  0  0  0  0  0  0
    4.5124   -3.2620    0.0000 H   0  0  0  0  0  0  0  0  0  0  0  0
    7.5187   -1.7594    0.0000 H   0  0  0  0  0  0  0  0  0  0  0  0
    8.0520   -1.1671    0.0000 H   0  0  0  0  0  0  0  0  0  0  0  0
    6.5753   -3.5955    0.0000 H   0  0  0  0  0  0  0  0  0  0  0  0
    3.7694   -5.2155    0.0000 H   0  0  0  0  0  0  0  0  0  0  0  0
    6.5753   -5.2155    0.0000 H   0  0  0  0  0  0  0  0  0  0  0  0
    2.2478   -2.8197    0.0000 H   0  0  0  0  0  0  0  0  0  0  0  0
   11.6991    0.0179    0.0000 H   0  0  0  0  0  0  0  0  0  0  0  0
   12.4788   -0.1478    0.0000 H   0  0  0  0  0  0  0  0  0  0  0  0
   11.5662    2.6609    0.0000 H   0  0  0  0  0  0  0  0  0  0  0  0
   11.0328    2.0686    0.0000 H   0  0  0  0  0  0  0  0  0  0  0  0
   13.0921    2.7376    0.0000 H   0  0  0  0  0  0  0  0  0  0  0  0
   12.3125    2.9034    0.0000 H   0  0  0  0  0  0  0  0  0  0  0  0
   13.2250    0.0947    0.0000 H   0  0  0  0  0  0  0  0  0  0  0  0
   13.7584    0.6870    0.0000 H   0  0  0  0  0  0  0  0  0  0  0  0
    9.2056   -1.1339    0.0000 H   0  0  0  0  0  0  0  0  0  0  0  0
    8.3386    1.5347    0.0000 H   0  0  0  0  0  0  0  0  0  0  0  0
    2.5402   -0.0377    0.0000 H   0  0  0  0  0  0  0  0  0  0  0  0
   10.7463   -0.6332    0.0000 H   0  0  0  0  0  0  0  0  0  0  0  0
    9.8793    2.0353    0.0000 H   0  0  0  0  0  0  0  0  0  0  0  0
   18.4311    4.7478    0.0000 H   0  0  0  0  0  0  0  0  0  0  0  0
   14.9120    0.7202    0.0000 H   0  0  0  0  0  0  0  0  0  0  0  0
   14.0449    3.3888    0.0000 H   0  0  0  0  0  0  0  0  0  0  0  0
   19.7900    5.1448    0.0000 H   0  0  0  0  0  0  0  0  0  0  0  0
   18.2103    6.0425    0.0000 H   0  0  0  0  0  0  0  0  0  0  0  0
   18.1270    5.2498    0.0000 H   0  0  0  0  0  0  0  0  0  0  0  0
   16.4527    1.2208    0.0000 H   0  0  0  0  0  0  0  0  0  0  0  0
   15.5856    3.8894    0.0000 H   0  0  0  0  0  0  0  0  0  0  0  0
   17.9599    1.7151    0.0000 H   0  0  0  0  0  0  0  0  0  0  0  0
   19.8826    3.4127    0.0000 H   0  0  0  0  0  0  0  0  0  0  0  0
   20.7011    3.0985    0.0000 H   0  0  0  0  0  0  0  0  0  0  0  0
   21.0154    3.9170    0.0000 H   0  0  0  0  0  0  0  0  0  0  0  0
   19.7303    6.0411    0.0000 H   0  0  0  0  0  0  0  0  0  0  0  0
   19.5932    6.9071    0.0000 H   0  0  0  0  0  0  0  0  0  0  0  0
   18.7272    6.7699    0.0000 H   0  0  0  0  0  0  0  0  0  0  0  0
   21.2466    5.3226    0.0000 H   0  0  0  0  0  0  0  0  0  0  0  0
  1 22  1  0  0  0  0
  2 28  1  0  0  0  0
  3 15  1  0  0  0  0
  3 18  1  0  0  0  0
  4 21  1  0  0  0  0
  4 27  1  0  0  0  0
 43  5  1  1  0  0  0
  5 93  1  0  0  0  0
  6 48  2  0  0  0  0
  7  8  1  0  0  0  0
  7 19  1  0  0  0  0
  7 26  1  0  0  0  0
  8 36  2  0  0  0  0
  9 29  1  0  0  0  0
  9 30  1  0  0  0  0
  9 33  1  0  0  0  0
 10 31  1  0  0  0  0
 10 32  1  0  0  0  0
 10 39  1  0  0  0  0
 11 26  2  0  0  0  0
 11 36  1  0  0  0  0
 12 14  1  0  0  0  0
 12 40  1  0  0  0  0
 12 48  1  0  0  0  0
 13 44  1  0  0  0  0
 13 48  1  0  0  0  0
 13 49  1  0  0  0  0
 14 49  2  0  0  0  0
 15 16  1  0  0  0  0
 15 19  1  1  0  0  0
 15 20  1  0  0  0  0
 16 17  1  0  0  0  0
 16 52  1  0  0  0  0
 16 53  1  0  0  0  0
 17 18  1  0  0  0  0
 17 21  1  0  0  0  0
 17 54  1  0  0  0  0
 18 55  1  0  0  0  0
 18 56  1  0  0  0  0
 19 57  1  0  0  0  0
 19 58  1  0  0  0  0
 20 22  2  0  0  0  0
 20 23  1  0  0  0  0
 21 59  1  0  0  0  0
 21 60  1  0  0  0  0
 22 24  1  0  0  0  0
 23 25  2  0  0  0  0
 23 61  1  0  0  0  0
 24 28  2  0  0  0  0
 24 62  1  0  0  0  0
 25 28  1  0  0  0  0
 25 63  1  0  0  0  0
 26 64  1  0  0  0  0
 27 34  2  0  0  0  0
 27 35  1  0  0  0  0
 29 31  1  0  0  0  0
 29 67  1  0  0  0  0
 29 68  1  0  0  0  0
 30 32  1  0  0  0  0
 30 65  1  0  0  0  0
 30 66  1  0  0  0  0
 31 69  1  0  0  0  0
 31 70  1  0  0  0  0
 32 71  1  0  0  0  0
 32 72  1  0  0  0  0
 33 37  2  0  0  0  0
 33 38  1  0  0  0  0
 34 37  1  0  0  0  0
 34 73  1  0  0  0  0
 35 38  2  0  0  0  0
 35 74  1  0  0  0  0
 36 75  1  0  0  0  0
 37 76  1  0  0  0  0
 38 77  1  0  0  0  0
 39 41  2  0  0  0  0
 39 42  1  0  0  0  0
 40 43  1  0  0  0  0
 40 45  1  1  0  0  0
 40 78  1  0  0  0  0
 41 46  1  0  0  0  0
 41 79  1  0  0  0  0
 42 47  2  0  0  0  0
 42 80  1  0  0  0  0
 43 50  1  0  0  0  0
 43 81  1  0  0  0  0
 44 46  2  0  0  0  0
 44 47  1  0  0  0  0
 45 51  1  0  0  0  0
 45 82  1  0  0  0  0
 45 83  1  0  0  0  0
 46 84  1  0  0  0  0
 47 85  1  0  0  0  0
 49 86  1  0  0  0  0
 50 87  1  0  0  0  0
 50 88  1  0  0  0  0
 50 89  1  0  0  0  0
 51 90  1  0  0  0  0
 51 91  1  0  0  0  0
 51 92  1  0  0  0  0
M  END
> <PUBCHEM_COMPOUND_CID>
147912

> <PUBCHEM_COMPOUND_CANONICALIZED>
1

> <PUBCHEM_CACTVS_COMPLEXITY>
1170

> <PUBCHEM_CACTVS_HBOND_ACCEPTOR>
11

> <PUBCHEM_CACTVS_HBOND_DONOR>
1

> <PUBCHEM_CACTVS_ROTATABLE_BOND>
12

> <PUBCHEM_CACTVS_SUBSKEYS>
AAADcfB/+YAAAAAAAAAAAAAAAAAAAWJEAAA8YMEAAAAAAAAB1AAAHwAICAAADXzhmA431ocIFgCqAiRDdACSCAsxooAfyAAObIiOfiLEuZuXeCjtxhPY6Cfw0PIOgECAAAAAAAAAgQAAAAAAAAAAAAAAAA==

> <PUBCHEM_IUPAC_OPENEYE_NAME>
4-[4-[4-[4-[[(5R)-5-(2,4-difluorophenyl)-5-(1,2,4-triazol-1-ylmethyl)tetrahydrofuran-3-yl]methoxy]phenyl]piperazin-1-yl]phenyl]-2-[(1S,2S)-1-ethyl-2-hydroxy-propyl]-1,2,4-triazol-3-one

> <PUBCHEM_IUPAC_CAS_NAME>
4-[4-[4-[4-[[(5R)-5-(2,4-difluorophenyl)-5-(1,2,4-triazol-1-ylmethyl)-3-oxolanyl]methoxy]phenyl]-1-piperazinyl]phenyl]-2-[(2S,3S)-2-hydroxypentan-3-yl]-1,2,4-triazol-3-one

> <PUBCHEM_IUPAC_NAME>
4-[4-[4-[4-[[(5R)-5-(2,4-difluorophenyl)-5-(1,2,4-triazol-1-ylmethyl)oxolan-3-yl]methoxy]phenyl]piperazin-1-yl]phenyl]-2-[(2S,3S)-2-hydroxypentan-3-yl]-1,2,4-triazol-3-one

> <PUBCHEM_IUPAC_SYSTEMATIC_NAME>
4-[4-[4-[4-[[(5R)-5-[2,4-bis(fluoranyl)phenyl]-5-(1,2,4-triazol-1-ylmethyl)oxolan-3-yl]methoxy]phenyl]piperazin-1-yl]phenyl]-2-[(2S,3S)-2-oxidanylpentan-3-yl]-1,2,4-triazol-3-one

> <PUBCHEM_IUPAC_TRADITIONAL_NAME>
4-[4-[4-[4-[[(5R)-5-(2,4-difluorophenyl)-5-(1,2,4-triazol-1-ylmethyl)tetrahydrofuran-3-yl]methoxy]phenyl]piperazino]phenyl]-2-[(1S,2S)-1-ethyl-2-hydroxy-propyl]-1,2,4-triazol-3-one

> <PUBCHEM_IUPAC_INCHI>
InChI=1S/C37H42F2N8O4/c1-3-35(26(2)48)47-36(49)46(25-42-47)31-7-5-29(6-8-31)43-14-16-44(17-15-43)30-9-11-32(12-10-30)50-20-27-19-37(51-21-27,22-45-24-40-23-41-45)33-13-4-28(38)18-34(33)39/h4-13,18,23-27,35,48H,3,14-17,19-22H2,1-2H3/t26-,27?,35-,37-/m0/s1

> <PUBCHEM_IUPAC_INCHIKEY>
RAGOYPUPXAKGKH-AGDNISCASA-N

> <PUBCHEM_XLOGP3>
4.6

> <PUBCHEM_EXACT_MASS>
700.329708

> <PUBCHEM_MOLECULAR_FORMULA>
C37H42F2N8O4

> <PUBCHEM_MOLECULAR_WEIGHT>
700.777386

> <PUBCHEM_OPENEYE_CAN_SMILES>
CCC(C(C)O)N1C(=O)N(C=N1)C2=CC=C(C=C2)N3CCN(CC3)C4=CC=C(C=C4)OCC5CC(OC5)(CN6C=NC=N6)C7=C(C=C(C=C7)F)F

> <PUBCHEM_OPENEYE_ISO_SMILES>
CC[C@@H]([C@H](C)O)N1C(=O)N(C=N1)C2=CC=C(C=C2)N3CCN(CC3)C4=CC=C(C=C4)OCC5C[C@](OC5)(CN6C=NC=N6)C7=C(C=C(C=C7)F)F

> <PUBCHEM_CACTVS_TPSA>
112

> <PUBCHEM_MONOISOTOPIC_WEIGHT>
700.329708

> <PUBCHEM_TOTAL_CHARGE>
0

> <PUBCHEM_HEAVY_ATOM_COUNT>
51

> <PUBCHEM_ATOM_DEF_STEREO_COUNT>
3

> <PUBCHEM_ATOM_UDEF_STEREO_COUNT>
1

> <PUBCHEM_BOND_DEF_STEREO_COUNT>
0

> <PUBCHEM_BOND_UDEF_STEREO_COUNT>
0

> <PUBCHEM_ISOTOPIC_ATOM_COUNT>
0

> <PUBCHEM_COMPONENT_COUNT>
1

> <PUBCHEM_CACTVS_TAUTO_COUNT>
1

> <PUBCHEM_COORDINATE_TYPE>
1
5
255

> <PUBCHEM_BONDANNOTATIONS>
11  26  8
11  36  8
12  14  8
12  48  8
13  48  8
13  49  8
14  49  8
15  19  5
17  54  3
20  22  8
20  23  8
22  24  8
23  25  8
24  28  8
25  28  8
27  34  8
27  35  8
33  37  8
33  38  8
34  37  8
35  38  8
39  41  8
39  42  8
40  45  5
41  46  8
42  47  8
44  46  8
44  47  8
43  5  5
7  26  8
7  8  8
8  36  8

$$$$
