148211
  -OEChem-12171208232D

 46 50  0     1  0  0  0  0  0999 V2000
    2.0520   -0.4054    0.0000 O   0  0  0  0  0  0  0  0  0  0  0  0
    4.2837    2.0087    0.0000 N   0  0  0  0  0  0  0  0  0  0  0  0
    3.7841   -0.4054    0.0000 N   0  0  0  0  0  0  0  0  0  0  0  0
    5.2837    2.0087    0.0000 C   0  0  0  0  0  0  0  0  0  0  0  0
    3.7841    0.5946    0.0000 C   0  0  1  0  0  0  0  0  0  0  0  0
    3.0770    1.3017    0.0000 C   0  0  0  0  0  0  0  0  0  0  0  0
    5.5425    3.9746    0.0000 C   0  0  0  0  0  0  0  0  0  0  0  0
    6.6979    0.5945    0.0000 C   0  0  0  0  0  0  0  0  0  0  0  0
    5.9908   -0.1126    0.0000 C   0  0  0  0  0  0  0  0  0  0  0  0
    4.5425    3.9746    0.0000 C   0  0  0  0  0  0  0  0  0  0  0  0
    4.6501   -1.9054    0.0000 C   0  0  1  0  0  0  0  0  0  0  0  0
    4.6501   -0.9054    0.0000 C   0  0  0  0  0  0  0  0  0  0  0  0
    3.7841   -2.4054    0.0000 C   0  0  0  0  0  0  0  0  0  0  0  0
    5.5095   -2.4002    0.0000 C   0  0  0  0  0  0  0  0  0  0  0  0
    2.9180   -0.9054    0.0000 C   0  0  0  0  0  0  0  0  0  0  0  0
    2.9180   -1.9054    0.0000 C   0  0  0  0  0  0  0  0  0  0  0  0
    5.5230   -3.3918    0.0000 C   0  0  0  0  0  0  0  0  0  0  0  0
    3.8001   -3.4469    0.0000 C   0  0  0  0  0  0  0  0  0  0  0  0
    4.6772   -3.9096    0.0000 C   0  0  0  0  0  0  0  0  0  0  0  0
    2.0080   -2.4122    0.0000 C   0  0  0  0  0  0  0  0  0  0  0  0
    2.9021   -3.9746    0.0000 C   0  0  0  0  0  0  0  0  0  0  0  0
    2.0000   -3.4538    0.0000 C   0  0  0  0  0  0  0  0  0  0  0  0
    5.8708    2.2080    0.0000 H   0  0  0  0  0  0  0  0  0  0  0  0
    3.2112    0.3573    0.0000 H   0  0  0  0  0  0  0  0  0  0  0  0
    2.7192    1.8081    0.0000 H   0  0  0  0  0  0  0  0  0  0  0  0
    2.6028    0.9022    0.0000 H   0  0  0  0  0  0  0  0  0  0  0  0
    6.1602    3.9206    0.0000 H   0  0  0  0  0  0  0  0  0  0  0  0
    5.5696    4.5941    0.0000 H   0  0  0  0  0  0  0  0  0  0  0  0
    7.1363    0.1561    0.0000 H   0  0  0  0  0  0  0  0  0  0  0  0
    7.1363    1.0329    0.0000 H   0  0  0  0  0  0  0  0  0  0  0  0
    5.5221   -0.5184    0.0000 H   0  0  0  0  0  0  0  0  0  0  0  0
    6.4132   -0.5665    0.0000 H   0  0  0  0  0  0  0  0  0  0  0  0
    4.5696    4.5941    0.0000 H   0  0  0  0  0  0  0  0  0  0  0  0
    3.9249    4.0287    0.0000 H   0  0  0  0  0  0  0  0  0  0  0  0
    5.3859   -1.4799    0.0000 H   0  0  0  0  0  0  0  0  0  0  0  0
    5.2607   -1.0131    0.0000 H   0  0  0  0  0  0  0  0  0  0  0  0
    4.8621   -0.3228    0.0000 H   0  0  0  0  0  0  0  0  0  0  0  0
    6.1211   -2.5020    0.0000 H   0  0  0  0  0  0  0  0  0  0  0  0
    5.7185   -1.8164    0.0000 H   0  0  0  0  0  0  0  0  0  0  0  0
    5.7476   -3.9696    0.0000 H   0  0  0  0  0  0  0  0  0  0  0  0
    6.1316   -3.2734    0.0000 H   0  0  0  0  0  0  0  0  0  0  0  0
    4.2951   -4.3979    0.0000 H   0  0  0  0  0  0  0  0  0  0  0  0
    5.0898   -4.3725    0.0000 H   0  0  0  0  0  0  0  0  0  0  0  0
    1.4747   -2.0960    0.0000 H   0  0  0  0  0  0  0  0  0  0  0  0
    2.9045   -4.5946    0.0000 H   0  0  0  0  0  0  0  0  0  0  0  0
    1.4619   -3.7618    0.0000 H   0  0  0  0  0  0  0  0  0  0  0  0
  1 15  2  0  0  0  0
  2  6  1  0  0  0  0
  2  9  1  0  0  0  0
  2 10  1  0  0  0  0
  5  3  1  6  0  0  0
  3 12  1  0  0  0  0
  3 15  1  0  0  0  0
  4  5  1  0  0  0  0
  4  7  1  0  0  0  0
  4  8  1  0  0  0  0
  4 23  1  0  0  0  0
  5  6  1  0  0  0  0
  5 24  1  0  0  0  0
  6 25  1  0  0  0  0
  6 26  1  0  0  0  0
  7 10  1  0  0  0  0
  7 27  1  0  0  0  0
  7 28  1  0  0  0  0
  8  9  1  0  0  0  0
  8 29  1  0  0  0  0
  8 30  1  0  0  0  0
  9 31  1  0  0  0  0
  9 32  1  0  0  0  0
 10 33  1  0  0  0  0
 10 34  1  0  0  0  0
 11 12  1  0  0  0  0
 11 13  1  0  0  0  0
 11 14  1  0  0  0  0
 11 35  1  1  0  0  0
 12 36  1  0  0  0  0
 12 37  1  0  0  0  0
 13 16  2  0  0  0  0
 13 18  1  0  0  0  0
 14 17  1  0  0  0  0
 14 38  1  0  0  0  0
 14 39  1  0  0  0  0
 15 16  1  0  0  0  0
 16 20  1  0  0  0  0
 17 19  1  0  0  0  0
 17 40  1  0  0  0  0
 17 41  1  0  0  0  0
 18 19  1  0  0  0  0
 18 21  2  0  0  0  0
 19 42  1  0  0  0  0
 19 43  1  0  0  0  0
 20 22  2  0  0  0  0
 20 44  1  0  0  0  0
 21 22  1  0  0  0  0
 21 45  1  0  0  0  0
 22 46  1  0  0  0  0
M  END
> <PUBCHEM_COMPOUND_CID>
148211

> <PUBCHEM_COMPOUND_CANONICALIZED>
1

> <PUBCHEM_CACTVS_COMPLEXITY>
456

> <PUBCHEM_CACTVS_HBOND_ACCEPTOR>
2

> <PUBCHEM_CACTVS_HBOND_DONOR>
0

> <PUBCHEM_CACTVS_ROTATABLE_BOND>
1

> <PUBCHEM_CACTVS_SUBSKEYS>
AAADceB7IAAAAAAAAAAAAAAAAAAAAAAAAAA8eLFiAAAAAADxAAAAHgAAAAAADSjBmAQwAIMAAACIAiFSEACCAAAkAAAIiAEIBMgIYDKAlRGUIQhghgCIiYcYicCOgAACAAAQAAAAAAQAACAAAAAAAAAAAA==

> <PUBCHEM_IUPAC_OPENEYE_NAME>
(3aR)-2-[(3S)-quinuclidin-3-yl]-3a,4,5,6-tetrahydro-3H-benzo[de]isoquinolin-1-one

> <PUBCHEM_IUPAC_CAS_NAME>
(3aR)-2-[(3S)-1-azabicyclo[2.2.2]octan-3-yl]-3a,4,5,6-tetrahydro-3H-benzo[de]isoquinolin-1-one

> <PUBCHEM_IUPAC_NAME>
(3aR)-2-[(3S)-1-azabicyclo[2.2.2]octan-3-yl]-3a,4,5,6-tetrahydro-3H-benzo[de]isoquinolin-1-one

> <PUBCHEM_IUPAC_SYSTEMATIC_NAME>
(3aR)-2-[(3S)-1-azabicyclo[2.2.2]octan-3-yl]-3a,4,5,6-tetrahydro-3H-benzo[de]isoquinolin-1-one

> <PUBCHEM_IUPAC_TRADITIONAL_NAME>
(3aR)-2-[(3S)-quinuclidin-3-yl]-3a,4,5,6-tetrahydro-3H-benzo[de]isoquinolin-1-one

> <PUBCHEM_IUPAC_INCHI>
InChI=1S/C19H24N2O/c22-19-16-6-2-4-14-3-1-5-15(18(14)16)11-21(19)17-12-20-9-7-13(17)8-10-20/h2,4,6,13,15,17H,1,3,5,7-12H2/t15-,17+/m0/s1

> <PUBCHEM_IUPAC_INCHIKEY>
CPZBLNMUGSZIPR-DOTOQJQBSA-N

> <PUBCHEM_XLOGP3_AA>
2.8

> <PUBCHEM_EXACT_MASS>
296.188863

> <PUBCHEM_MOLECULAR_FORMULA>
C19H24N2O

> <PUBCHEM_MOLECULAR_WEIGHT>
296.40666

> <PUBCHEM_OPENEYE_CAN_SMILES>
C1CC2CN(C(=O)C3=C2C(=CC=C3)C1)C4CN5CCC4CC5

> <PUBCHEM_OPENEYE_ISO_SMILES>
C1C[C@H]2CN(C(=O)C3=C2C(=CC=C3)C1)[C@@H]4CN5CCC4CC5

> <PUBCHEM_CACTVS_TPSA>
23.6

> <PUBCHEM_MONOISOTOPIC_WEIGHT>
296.188863

> <PUBCHEM_TOTAL_CHARGE>
0

> <PUBCHEM_HEAVY_ATOM_COUNT>
22

> <PUBCHEM_ATOM_DEF_STEREO_COUNT>
2

> <PUBCHEM_ATOM_UDEF_STEREO_COUNT>
0

> <PUBCHEM_BOND_DEF_STEREO_COUNT>
0

> <PUBCHEM_BOND_UDEF_STEREO_COUNT>
0

> <PUBCHEM_ISOTOPIC_ATOM_COUNT>
0

> <PUBCHEM_COMPONENT_COUNT>
1

> <PUBCHEM_CACTVS_TAUTO_COUNT>
1

> <PUBCHEM_COORDINATE_TYPE>
1
5
255

> <PUBCHEM_BONDANNOTATIONS>
11  35  5
13  16  8
13  18  8
16  20  8
18  21  8
20  22  8
21  22  8
5  3  6

$$$$
