150311
  -OEChem-12171208232D

 51 54  0     1  0  0  0  0  0999 V2000
    2.0000    0.3435    0.0000 F   0  0  0  0  0  0  0  0  0  0  0  0
   11.9142    4.6736    0.0000 F   0  0  0  0  0  0  0  0  0  0  0  0
    6.7071    2.0506    0.0000 O   0  0  0  0  0  0  0  0  0  0  0  0
   10.4142    0.3435    0.0000 O   0  0  0  0  0  0  0  0  0  0  0  0
    6.7071   -4.3636    0.0000 O   0  0  0  0  0  0  0  0  0  0  0  0
    6.0000    0.3435    0.0000 N   0  0  0  0  0  0  0  0  0  0  0  0
    7.4142    0.3435    0.0000 C   0  0  1  0  0  0  0  0  0  0  0  0
    6.7071   -0.3636    0.0000 C   0  0  1  0  0  0  0  0  0  0  0  0
    8.4142    0.3435    0.0000 C   0  0  0  0  0  0  0  0  0  0  0  0
    6.7071    1.0506    0.0000 C   0  0  0  0  0  0  0  0  0  0  0  0
    6.7071   -1.3636    0.0000 C   0  0  0  0  0  0  0  0  0  0  0  0
    8.9142    1.2095    0.0000 C   0  0  0  0  0  0  0  0  0  0  0  0
    5.0000    0.3435    0.0000 C   0  0  0  0  0  0  0  0  0  0  0  0
    9.9142    1.2095    0.0000 C   0  0  1  0  0  0  0  0  0  0  0  0
    5.8411   -1.8636    0.0000 C   0  0  0  0  0  0  0  0  0  0  0  0
    7.5731   -1.8636    0.0000 C   0  0  0  0  0  0  0  0  0  0  0  0
    4.5000    1.2095    0.0000 C   0  0  0  0  0  0  0  0  0  0  0  0
    4.5000   -0.5225    0.0000 C   0  0  0  0  0  0  0  0  0  0  0  0
   10.4142    2.0755    0.0000 C   0  0  0  0  0  0  0  0  0  0  0  0
    5.8411   -2.8636    0.0000 C   0  0  0  0  0  0  0  0  0  0  0  0
    7.5731   -2.8636    0.0000 C   0  0  0  0  0  0  0  0  0  0  0  0
    6.7071   -3.3636    0.0000 C   0  0  0  0  0  0  0  0  0  0  0  0
    3.5000    1.2095    0.0000 C   0  0  0  0  0  0  0  0  0  0  0  0
    3.5000   -0.5225    0.0000 C   0  0  0  0  0  0  0  0  0  0  0  0
   11.4142    2.0755    0.0000 C   0  0  0  0  0  0  0  0  0  0  0  0
    9.9142    2.9416    0.0000 C   0  0  0  0  0  0  0  0  0  0  0  0
    3.0000    0.3435    0.0000 C   0  0  0  0  0  0  0  0  0  0  0  0
   11.9142    2.9416    0.0000 C   0  0  0  0  0  0  0  0  0  0  0  0
   10.4142    3.8076    0.0000 C   0  0  0  0  0  0  0  0  0  0  0  0
   11.4142    3.8076    0.0000 C   0  0  0  0  0  0  0  0  0  0  0  0
    7.6515   -0.2293    0.0000 H   0  0  0  0  0  0  0  0  0  0  0  0
    6.1343   -0.6009    0.0000 H   0  0  0  0  0  0  0  0  0  0  0  0
    8.3066   -0.2671    0.0000 H   0  0  0  0  0  0  0  0  0  0  0  0
    8.9968    0.1314    0.0000 H   0  0  0  0  0  0  0  0  0  0  0  0
    9.0219    1.8201    0.0000 H   0  0  0  0  0  0  0  0  0  0  0  0
    8.3316    1.4216    0.0000 H   0  0  0  0  0  0  0  0  0  0  0  0
   10.5342    1.2095    0.0000 H   0  0  0  0  0  0  0  0  0  0  0  0
    5.3042   -1.5536    0.0000 H   0  0  0  0  0  0  0  0  0  0  0  0
    8.1101   -1.5536    0.0000 H   0  0  0  0  0  0  0  0  0  0  0  0
    4.8100    1.7464    0.0000 H   0  0  0  0  0  0  0  0  0  0  0  0
    4.8100   -1.0595    0.0000 H   0  0  0  0  0  0  0  0  0  0  0  0
    5.3042   -3.1736    0.0000 H   0  0  0  0  0  0  0  0  0  0  0  0
    8.1101   -3.1736    0.0000 H   0  0  0  0  0  0  0  0  0  0  0  0
   11.0342    0.3435    0.0000 H   0  0  0  0  0  0  0  0  0  0  0  0
    3.1900    1.7464    0.0000 H   0  0  0  0  0  0  0  0  0  0  0  0
    3.1900   -1.0595    0.0000 H   0  0  0  0  0  0  0  0  0  0  0  0
   11.7242    1.5386    0.0000 H   0  0  0  0  0  0  0  0  0  0  0  0
    9.2942    2.9416    0.0000 H   0  0  0  0  0  0  0  0  0  0  0  0
   12.5342    2.9416    0.0000 H   0  0  0  0  0  0  0  0  0  0  0  0
   10.1042    4.3445    0.0000 H   0  0  0  0  0  0  0  0  0  0  0  0
    7.2440   -4.6736    0.0000 H   0  0  0  0  0  0  0  0  0  0  0  0
  1 27  1  0  0  0  0
  2 30  1  0  0  0  0
  3 10  2  0  0  0  0
 14  4  1  1  0  0  0
  4 44  1  0  0  0  0
  5 22  1  0  0  0  0
  5 51  1  0  0  0  0
  6  8  1  0  0  0  0
  6 10  1  0  0  0  0
  6 13  1  0  0  0  0
  7  8  1  0  0  0  0
  7  9  1  6  0  0  0
  7 10  1  0  0  0  0
  7 31  1  0  0  0  0
  8 11  1  1  0  0  0
  8 32  1  0  0  0  0
  9 12  1  0  0  0  0
  9 33  1  0  0  0  0
  9 34  1  0  0  0  0
 11 15  2  0  0  0  0
 11 16  1  0  0  0  0
 12 14  1  0  0  0  0
 12 35  1  0  0  0  0
 12 36  1  0  0  0  0
 13 17  2  0  0  0  0
 13 18  1  0  0  0  0
 14 19  1  0  0  0  0
 14 37  1  0  0  0  0
 15 20  1  0  0  0  0
 15 38  1  0  0  0  0
 16 21  2  0  0  0  0
 16 39  1  0  0  0  0
 17 23  1  0  0  0  0
 17 40  1  0  0  0  0
 18 24  2  0  0  0  0
 18 41  1  0  0  0  0
 19 25  2  0  0  0  0
 19 26  1  0  0  0  0
 20 22  2  0  0  0  0
 20 42  1  0  0  0  0
 21 22  1  0  0  0  0
 21 43  1  0  0  0  0
 23 27  2  0  0  0  0
 23 45  1  0  0  0  0
 24 27  1  0  0  0  0
 24 46  1  0  0  0  0
 25 28  1  0  0  0  0
 25 47  1  0  0  0  0
 26 29  2  0  0  0  0
 26 48  1  0  0  0  0
 28 30  2  0  0  0  0
 28 49  1  0  0  0  0
 29 30  1  0  0  0  0
 29 50  1  0  0  0  0
M  END
> <PUBCHEM_COMPOUND_CID>
150311

> <PUBCHEM_COMPOUND_CANONICALIZED>
1

> <PUBCHEM_CACTVS_COMPLEXITY>
567

> <PUBCHEM_CACTVS_HBOND_ACCEPTOR>
5

> <PUBCHEM_CACTVS_HBOND_DONOR>
2

> <PUBCHEM_CACTVS_ROTATABLE_BOND>
6

> <PUBCHEM_CACTVS_SUBSKEYS>
AAADceB6MYAAAAAAAAAAAAAAAABYAAAAAAAwYMAAAAAAAAABUAAAHwAACAAADTzhmA4wxoMAAgCIAiVSUACCAAAhIgAIiAEObIgINjrCkZOEcAhkxhHI2AeY3OPOIAAAAAAAAABAAAAAAAAAAAAAAAAAAA==

> <PUBCHEM_IUPAC_OPENEYE_NAME>
(3R,4S)-1-(4-fluorophenyl)-3-[(3S)-3-(4-fluorophenyl)-3-hydroxy-propyl]-4-(4-hydroxyphenyl)azetidin-2-one

> <PUBCHEM_IUPAC_CAS_NAME>
(3R,4S)-1-(4-fluorophenyl)-3-[(3S)-3-(4-fluorophenyl)-3-hydroxypropyl]-4-(4-hydroxyphenyl)-2-azetidinone

> <PUBCHEM_IUPAC_NAME>
(3R,4S)-1-(4-fluorophenyl)-3-[(3S)-3-(4-fluorophenyl)-3-hydroxypropyl]-4-(4-hydroxyphenyl)azetidin-2-one

> <PUBCHEM_IUPAC_SYSTEMATIC_NAME>
(3R,4S)-1-(4-fluorophenyl)-3-[(3S)-3-(4-fluorophenyl)-3-oxidanyl-propyl]-4-(4-hydroxyphenyl)azetidin-2-one

> <PUBCHEM_IUPAC_TRADITIONAL_NAME>
(3R,4S)-1-(4-fluorophenyl)-3-[(3S)-3-(4-fluorophenyl)-3-hydroxy-propyl]-4-(4-hydroxyphenyl)azetidin-2-one

> <PUBCHEM_IUPAC_INCHI>
InChI=1S/C24H21F2NO3/c25-17-5-1-15(2-6-17)22(29)14-13-21-23(16-3-11-20(28)12-4-16)27(24(21)30)19-9-7-18(26)8-10-19/h1-12,21-23,28-29H,13-14H2/t21-,22+,23-/m1/s1

> <PUBCHEM_IUPAC_INCHIKEY>
OLNTVTPDXPETLC-XPWALMASSA-N

> <PUBCHEM_XLOGP3_AA>
4

> <PUBCHEM_EXACT_MASS>
409.14895

> <PUBCHEM_MOLECULAR_FORMULA>
C24H21F2NO3

> <PUBCHEM_MOLECULAR_WEIGHT>
409.425246

> <PUBCHEM_OPENEYE_CAN_SMILES>
C1=CC(=CC=C1C2C(C(=O)N2C3=CC=C(C=C3)F)CCC(C4=CC=C(C=C4)F)O)O

> <PUBCHEM_OPENEYE_ISO_SMILES>
C1=CC(=CC=C1[C@@H]2[C@H](C(=O)N2C3=CC=C(C=C3)F)CC[C@@H](C4=CC=C(C=C4)F)O)O

> <PUBCHEM_CACTVS_TPSA>
60.8

> <PUBCHEM_MONOISOTOPIC_WEIGHT>
409.14895

> <PUBCHEM_TOTAL_CHARGE>
0

> <PUBCHEM_HEAVY_ATOM_COUNT>
30

> <PUBCHEM_ATOM_DEF_STEREO_COUNT>
3

> <PUBCHEM_ATOM_UDEF_STEREO_COUNT>
0

> <PUBCHEM_BOND_DEF_STEREO_COUNT>
0

> <PUBCHEM_BOND_UDEF_STEREO_COUNT>
0

> <PUBCHEM_ISOTOPIC_ATOM_COUNT>
0

> <PUBCHEM_COMPONENT_COUNT>
1

> <PUBCHEM_CACTVS_TAUTO_COUNT>
4

> <PUBCHEM_COORDINATE_TYPE>
1
5
255

> <PUBCHEM_BONDANNOTATIONS>
11  15  8
11  16  8
13  17  8
13  18  8
15  20  8
16  21  8
17  23  8
18  24  8
19  25  8
19  26  8
20  22  8
21  22  8
23  27  8
24  27  8
25  28  8
26  29  8
28  30  8
29  30  8
14  4  5
7  9  6
8  11  5

$$$$
