151165
  -OEChem-12171208232D

 58 61  0     1  0  0  0  0  0999 V2000
    3.7320   -3.3656    0.0000 F   0  0  0  0  0  0  0  0  0  0  0  0
    2.0000    0.6344    0.0000 F   0  0  0  0  0  0  0  0  0  0  0  0
    2.3660    2.0004    0.0000 F   0  0  0  0  0  0  0  0  0  0  0  0
    3.3660    0.2684    0.0000 F   0  0  0  0  0  0  0  0  0  0  0  0
    4.5981    5.1344    0.0000 F   0  0  0  0  0  0  0  0  0  0  0  0
    5.5981    4.1344    0.0000 F   0  0  0  0  0  0  0  0  0  0  0  0
    3.5981    4.1344    0.0000 F   0  0  0  0  0  0  0  0  0  0  0  0
    8.0622    0.1344    0.0000 O   0  0  0  0  0  0  0  0  0  0  0  0
    6.3301    0.1344    0.0000 O   0  0  0  0  0  0  0  0  0  0  0  0
   11.5054   -3.5975    0.0000 O   0  0  0  0  0  0  0  0  0  0  0  0
    8.0622   -1.8656    0.0000 N   0  0  3  0  0  0  0  0  0  0  0  0
    9.0327   -4.3601    0.0000 N   0  0  0  0  0  0  0  0  0  0  0  0
    9.8418   -2.9588    0.0000 N   0  0  0  0  0  0  0  0  0  0  0  0
   10.0109   -4.5680    0.0000 N   0  0  0  0  0  0  0  0  0  0  0  0
    7.1962   -1.3656    0.0000 C   0  0  1  0  0  0  0  0  0  0  0  0
    7.1962   -0.3656    0.0000 C   0  0  1  0  0  0  0  0  0  0  0  0
    8.9282   -1.3656    0.0000 C   0  0  0  0  0  0  0  0  0  0  0  0
    8.9282   -0.3656    0.0000 C   0  0  0  0  0  0  0  0  0  0  0  0
    6.3301   -1.8656    0.0000 C   0  0  0  0  0  0  0  0  0  0  0  0
    8.0622   -2.8656    0.0000 C   0  0  0  0  0  0  0  0  0  0  0  0
    6.3301    1.1344    0.0000 C   0  0  1  0  0  0  0  0  0  0  0  0
    8.9282   -3.3656    0.0000 C   0  0  0  0  0  0  0  0  0  0  0  0
    5.4641   -1.3656    0.0000 C   0  0  0  0  0  0  0  0  0  0  0  0
    6.3301   -2.8656    0.0000 C   0  0  0  0  0  0  0  0  0  0  0  0
    5.4641    1.6344    0.0000 C   0  0  0  0  0  0  0  0  0  0  0  0
    7.1962    1.6344    0.0000 C   0  0  0  0  0  0  0  0  0  0  0  0
    4.5981   -1.8656    0.0000 C   0  0  0  0  0  0  0  0  0  0  0  0
    5.4641   -3.3656    0.0000 C   0  0  0  0  0  0  0  0  0  0  0  0
    5.4641    2.6344    0.0000 C   0  0  0  0  0  0  0  0  0  0  0  0
    4.5981    1.1344    0.0000 C   0  0  0  0  0  0  0  0  0  0  0  0
    4.5981   -2.8656    0.0000 C   0  0  0  0  0  0  0  0  0  0  0  0
    4.5981    3.1344    0.0000 C   0  0  0  0  0  0  0  0  0  0  0  0
    3.7320    1.6344    0.0000 C   0  0  0  0  0  0  0  0  0  0  0  0
    3.7320    2.6344    0.0000 C   0  0  0  0  0  0  0  0  0  0  0  0
   10.5109   -3.7020    0.0000 C   0  0  0  0  0  0  0  0  0  0  0  0
    2.8660    1.1344    0.0000 C   0  0  0  0  0  0  0  0  0  0  0  0
    4.5981    4.1344    0.0000 C   0  0  0  0  0  0  0  0  0  0  0  0
    6.6592   -1.0556    0.0000 H   0  0  0  0  0  0  0  0  0  0  0  0
    6.6592   -0.6756    0.0000 H   0  0  0  0  0  0  0  0  0  0  0  0
    9.1403   -1.9482    0.0000 H   0  0  0  0  0  0  0  0  0  0  0  0
    9.5388   -1.2579    0.0000 H   0  0  0  0  0  0  0  0  0  0  0  0
    9.5388   -0.4732    0.0000 H   0  0  0  0  0  0  0  0  0  0  0  0
    9.1403    0.2170    0.0000 H   0  0  0  0  0  0  0  0  0  0  0  0
    7.4516   -2.7579    0.0000 H   0  0  0  0  0  0  0  0  0  0  0  0
    7.8501   -3.4482    0.0000 H   0  0  0  0  0  0  0  0  0  0  0  0
    6.8671    0.8244    0.0000 H   0  0  0  0  0  0  0  0  0  0  0  0
    5.4641   -0.7456    0.0000 H   0  0  0  0  0  0  0  0  0  0  0  0
    6.8671   -3.1756    0.0000 H   0  0  0  0  0  0  0  0  0  0  0  0
    7.5062    1.0975    0.0000 H   0  0  0  0  0  0  0  0  0  0  0  0
    7.7331    1.9444    0.0000 H   0  0  0  0  0  0  0  0  0  0  0  0
    6.8862    2.1714    0.0000 H   0  0  0  0  0  0  0  0  0  0  0  0
    4.0611   -1.5556    0.0000 H   0  0  0  0  0  0  0  0  0  0  0  0
    5.4641   -3.9856    0.0000 H   0  0  0  0  0  0  0  0  0  0  0  0
    8.5720   -4.7750    0.0000 H   0  0  0  0  0  0  0  0  0  0  0  0
    6.0010    2.9444    0.0000 H   0  0  0  0  0  0  0  0  0  0  0  0
    4.5981    0.5144    0.0000 H   0  0  0  0  0  0  0  0  0  0  0  0
   10.2631   -5.1344    0.0000 H   0  0  0  0  0  0  0  0  0  0  0  0
    3.1951    2.9444    0.0000 H   0  0  0  0  0  0  0  0  0  0  0  0
  1 31  1  0  0  0  0
  2 36  1  0  0  0  0
  3 36  1  0  0  0  0
  4 36  1  0  0  0  0
  5 37  1  0  0  0  0
  6 37  1  0  0  0  0
  7 37  1  0  0  0  0
  8 16  1  0  0  0  0
  8 18  1  0  0  0  0
 16  9  1  6  0  0  0
 21  9  1  1  0  0  0
 10 35  2  0  0  0  0
 11 15  1  0  0  0  0
 11 17  1  0  0  0  0
 11 20  1  0  0  0  0
 12 14  1  0  0  0  0
 12 22  1  0  0  0  0
 12 54  1  0  0  0  0
 13 22  2  0  0  0  0
 13 35  1  0  0  0  0
 14 35  1  0  0  0  0
 14 57  1  0  0  0  0
 15 16  1  0  0  0  0
 15 19  1  6  0  0  0
 15 38  1  0  0  0  0
 16 39  1  0  0  0  0
 17 18  1  0  0  0  0
 17 40  1  0  0  0  0
 17 41  1  0  0  0  0
 18 42  1  0  0  0  0
 18 43  1  0  0  0  0
 19 23  2  0  0  0  0
 19 24  1  0  0  0  0
 20 22  1  0  0  0  0
 20 44  1  0  0  0  0
 20 45  1  0  0  0  0
 21 25  1  0  0  0  0
 21 26  1  0  0  0  0
 21 46  1  0  0  0  0
 23 27  1  0  0  0  0
 23 47  1  0  0  0  0
 24 28  2  0  0  0  0
 24 48  1  0  0  0  0
 25 29  2  0  0  0  0
 25 30  1  0  0  0  0
 26 49  1  0  0  0  0
 26 50  1  0  0  0  0
 26 51  1  0  0  0  0
 27 31  2  0  0  0  0
 27 52  1  0  0  0  0
 28 31  1  0  0  0  0
 28 53  1  0  0  0  0
 29 32  1  0  0  0  0
 29 55  1  0  0  0  0
 30 33  2  0  0  0  0
 30 56  1  0  0  0  0
 32 34  2  0  0  0  0
 32 37  1  0  0  0  0
 33 34  1  0  0  0  0
 33 36  1  0  0  0  0
 34 58  1  0  0  0  0
M  END
> <PUBCHEM_COMPOUND_CID>
151165

> <PUBCHEM_COMPOUND_CANONICALIZED>
1

> <PUBCHEM_CACTVS_COMPLEXITY>
810

> <PUBCHEM_CACTVS_HBOND_ACCEPTOR>
11

> <PUBCHEM_CACTVS_HBOND_DONOR>
2

> <PUBCHEM_CACTVS_ROTATABLE_BOND>
6

> <PUBCHEM_CACTVS_SUBSKEYS>
AAADceB7scAAAAAAAAAAAAAAAAAAAQAAAAA8YIAAAAAAAAABQAAAHwAYAAAADDzxmB8zCINiBACoAiJiNACCAAEgAAIeqAAYDIgaZiKAsRm3MAhk0AGcqAeQwOAOAAACAAAAAAAAAAQAAAAAAAAAAAAAAA==

> <PUBCHEM_IUPAC_OPENEYE_NAME>
5-[[(2S,3R)-2-[(1R)-1-[3,5-bis(trifluoromethyl)phenyl]ethoxy]-3-(4-fluorophenyl)morpholin-4-yl]methyl]-1,2-dihydro-1,2,4-triazol-3-one

> <PUBCHEM_IUPAC_CAS_NAME>
5-[[(2S,3R)-2-[(1R)-1-[3,5-bis(trifluoromethyl)phenyl]ethoxy]-3-(4-fluorophenyl)-4-morpholinyl]methyl]-1,2-dihydro-1,2,4-triazol-3-one

> <PUBCHEM_IUPAC_NAME>
5-[[(2S,3R)-2-[(1R)-1-[3,5-bis(trifluoromethyl)phenyl]ethoxy]-3-(4-fluorophenyl)morpholin-4-yl]methyl]-1,2-dihydro-1,2,4-triazol-3-one

> <PUBCHEM_IUPAC_SYSTEMATIC_NAME>
5-[[(2S,3R)-2-[(1R)-1-[3,5-bis(trifluoromethyl)phenyl]ethoxy]-3-(4-fluorophenyl)morpholin-4-yl]methyl]-1,2-dihydro-1,2,4-triazol-3-one

> <PUBCHEM_IUPAC_TRADITIONAL_NAME>
5-[[(2S,3R)-2-[(1R)-1-[3,5-bis(trifluoromethyl)phenyl]ethoxy]-3-(4-fluorophenyl)morpholino]methyl]-1,2-dihydro-1,2,4-triazol-3-one

> <PUBCHEM_IUPAC_INCHI>
InChI=1S/C23H21F7N4O3/c1-12(14-8-15(22(25,26)27)10-16(9-14)23(28,29)30)37-20-19(13-2-4-17(24)5-3-13)34(6-7-36-20)11-18-31-21(35)33-32-18/h2-5,8-10,12,19-20H,6-7,11H2,1H3,(H2,31,32,33,35)/t12-,19-,20+/m1/s1

> <PUBCHEM_IUPAC_INCHIKEY>
ATALOFNDEOCMKK-BYYRLHKVSA-N

> <PUBCHEM_XLOGP3_AA>
4.2

> <PUBCHEM_EXACT_MASS>
534.150188

> <PUBCHEM_MOLECULAR_FORMULA>
C23H21F7N4O3

> <PUBCHEM_MOLECULAR_WEIGHT>
534.426662

> <PUBCHEM_OPENEYE_CAN_SMILES>
CC(C1=CC(=CC(=C1)C(F)(F)F)C(F)(F)F)OC2C(N(CCO2)CC3=NC(=O)NN3)C4=CC=C(C=C4)F

> <PUBCHEM_OPENEYE_ISO_SMILES>
C[C@H](C1=CC(=CC(=C1)C(F)(F)F)C(F)(F)F)O[C@H]2[C@H](N(CCO2)CC3=NC(=O)NN3)C4=CC=C(C=C4)F

> <PUBCHEM_CACTVS_TPSA>
75.2

> <PUBCHEM_MONOISOTOPIC_WEIGHT>
534.150188

> <PUBCHEM_TOTAL_CHARGE>
0

> <PUBCHEM_HEAVY_ATOM_COUNT>
37

> <PUBCHEM_ATOM_DEF_STEREO_COUNT>
3

> <PUBCHEM_ATOM_UDEF_STEREO_COUNT>
0

> <PUBCHEM_BOND_DEF_STEREO_COUNT>
0

> <PUBCHEM_BOND_UDEF_STEREO_COUNT>
0

> <PUBCHEM_ISOTOPIC_ATOM_COUNT>
0

> <PUBCHEM_COMPONENT_COUNT>
1

> <PUBCHEM_CACTVS_TAUTO_COUNT>
5

> <PUBCHEM_COORDINATE_TYPE>
1
5
255

> <PUBCHEM_BONDANNOTATIONS>
12  14  8
12  22  8
13  22  8
13  35  8
14  35  8
15  19  6
19  23  8
19  24  8
23  27  8
24  28  8
25  29  8
25  30  8
27  31  8
28  31  8
29  32  8
30  33  8
32  34  8
33  34  8
16  9  6
21  9  5

$$$$
