153941
  -OEChem-12171208232D

 35 37  0     1  0  0  0  0  0999 V2000
    6.0873    2.8212    0.0000 O   0  0  0  0  0  0  0  0  0  0  0  0
    8.0524    3.1401    0.0000 O   0  0  0  0  0  0  0  0  0  0  0  0
    4.2690   -3.5036    0.0000 O   0  0  0  0  0  0  0  0  0  0  0  0
    6.0812   -0.6989    0.0000 N   0  0  0  0  0  0  0  0  0  0  0  0
    4.2690   -0.5036    0.0000 N   0  0  0  0  0  0  0  0  0  0  0  0
    6.0812   -2.3084    0.0000 N   0  0  0  0  0  0  0  0  0  0  0  0
    3.4030   -2.0036    0.0000 N   0  0  0  0  0  0  0  0  0  0  0  0
    2.5369   -0.5036    0.0000 N   0  0  0  0  0  0  0  0  0  0  0  0
    6.3919    0.2516    0.0000 C   0  0  1  0  0  0  0  0  0  0  0  0
    7.3452    1.5590    0.0000 C   0  0  2  0  0  0  0  0  0  0  0  0
    6.3947    1.8696    0.0000 C   0  0  2  0  0  0  0  0  0  0  0  0
    5.8055    1.0616    0.0000 C   0  0  0  0  0  0  0  0  0  0  0  0
    7.3435    0.5590    0.0000 C   0  0  0  0  0  0  0  0  0  0  0  0
    8.1552    2.1454    0.0000 C   0  0  0  0  0  0  0  0  0  0  0  0
    5.1350   -1.0036    0.0000 C   0  0  0  0  0  0  0  0  0  0  0  0
    8.1515   -0.0302    0.0000 C   0  0  0  0  0  0  0  0  0  0  0  0
    6.6648   -1.5036    0.0000 C   0  0  0  0  0  0  0  0  0  0  0  0
    5.1350   -2.0036    0.0000 C   0  0  0  0  0  0  0  0  0  0  0  0
    4.2690   -2.5036    0.0000 C   0  0  0  0  0  0  0  0  0  0  0  0
    3.4030   -1.0036    0.0000 C   0  0  0  0  0  0  0  0  0  0  0  0
    5.7794    0.1557    0.0000 H   0  0  0  0  0  0  0  0  0  0  0  0
    7.2493    2.1715    0.0000 H   0  0  0  0  0  0  0  0  0  0  0  0
    5.7825    1.9677    0.0000 H   0  0  0  0  0  0  0  0  0  0  0  0
    5.3455    1.4773    0.0000 H   0  0  0  0  0  0  0  0  0  0  0  0
    5.3440    0.6476    0.0000 H   0  0  0  0  0  0  0  0  0  0  0  0
    8.4261    1.5876    0.0000 H   0  0  0  0  0  0  0  0  0  0  0  0
    8.7515    2.3152    0.0000 H   0  0  0  0  0  0  0  0  0  0  0  0
    8.0856   -0.6467    0.0000 H   0  0  0  0  0  0  0  0  0  0  0  0
    8.7183    0.2210    0.0000 H   0  0  0  0  0  0  0  0  0  0  0  0
    5.4811    2.9512    0.0000 H   0  0  0  0  0  0  0  0  0  0  0  0
    7.2848   -1.5036    0.0000 H   0  0  0  0  0  0  0  0  0  0  0  0
    4.2690    0.1164    0.0000 H   0  0  0  0  0  0  0  0  0  0  0  0
    8.5547    3.5036    0.0000 H   0  0  0  0  0  0  0  0  0  0  0  0
    2.0000   -0.8136    0.0000 H   0  0  0  0  0  0  0  0  0  0  0  0
    2.5369    0.1164    0.0000 H   0  0  0  0  0  0  0  0  0  0  0  0
 11  1  1  6  0  0  0
  1 30  1  0  0  0  0
  2 14  1  0  0  0  0
  2 33  1  0  0  0  0
  3 19  2  0  0  0  0
  9  4  1  1  0  0  0
  4 15  1  0  0  0  0
  4 17  1  0  0  0  0
  5 15  1  0  0  0  0
  5 20  1  0  0  0  0
  5 32  1  0  0  0  0
  6 17  2  0  0  0  0
  6 18  1  0  0  0  0
  7 19  1  0  0  0  0
  7 20  2  0  0  0  0
  8 20  1  0  0  0  0
  8 34  1  0  0  0  0
  8 35  1  0  0  0  0
  9 12  1  0  0  0  0
  9 13  1  0  0  0  0
  9 21  1  0  0  0  0
 10 11  1  0  0  0  0
 10 13  1  0  0  0  0
 10 14  1  1  0  0  0
 10 22  1  0  0  0  0
 11 12  1  0  0  0  0
 11 23  1  0  0  0  0
 12 24  1  0  0  0  0
 12 25  1  0  0  0  0
 13 16  2  0  0  0  0
 14 26  1  0  0  0  0
 14 27  1  0  0  0  0
 15 18  2  0  0  0  0
 16 28  1  0  0  0  0
 16 29  1  0  0  0  0
 17 31  1  0  0  0  0
 18 19  1  0  0  0  0
M  END
> <PUBCHEM_COMPOUND_CID>
153941

> <PUBCHEM_COMPOUND_CANONICALIZED>
1

> <PUBCHEM_CACTVS_COMPLEXITY>
480

> <PUBCHEM_CACTVS_HBOND_ACCEPTOR>
4

> <PUBCHEM_CACTVS_HBOND_DONOR>
4

> <PUBCHEM_CACTVS_ROTATABLE_BOND>
2

> <PUBCHEM_CACTVS_SUBSKEYS>
AAADccBzsAAAAAAAAAAAAAAAAAAAAeIAAAAgAAAAAAAAAEABgAAAHgAQCAAADTzhlgYFsBfMEgCoAwdzdACAgC03EKABUAGoVEiAWApAySAUQIAPwALAAGGwUAMOAAAAAAAAAAAAAAAAAAAAACEABAAAAA==

> <PUBCHEM_IUPAC_OPENEYE_NAME>
2-amino-9-[(1S,3R,4S)-4-hydroxy-3-(hydroxymethyl)-2-methylene-cyclopentyl]-3H-purin-6-one

> <PUBCHEM_IUPAC_CAS_NAME>
2-amino-9-[(1S,3R,4S)-4-hydroxy-3-(hydroxymethyl)-2-methylenecyclopentyl]-3H-purin-6-one

> <PUBCHEM_IUPAC_NAME>
2-amino-9-[(1S,3R,4S)-4-hydroxy-3-(hydroxymethyl)-2-methylidenecyclopentyl]-3H-purin-6-one

> <PUBCHEM_IUPAC_SYSTEMATIC_NAME>
2-azanyl-9-[(1S,3R,4S)-3-(hydroxymethyl)-2-methylidene-4-oxidanyl-cyclopentyl]-3H-purin-6-one

> <PUBCHEM_IUPAC_TRADITIONAL_NAME>
2-amino-9-[(1S,3R,4S)-4-hydroxy-2-methylene-3-methylol-cyclopentyl]-3H-purin-6-one

> <PUBCHEM_IUPAC_INCHI>
InChI=1S/C12H15N5O3/c1-5-6(3-18)8(19)2-7(5)17-4-14-9-10(17)15-12(13)16-11(9)20/h4,6-8,18-19H,1-3H2,(H3,13,15,16,20)/t6-,7-,8-/m0/s1

> <PUBCHEM_IUPAC_INCHIKEY>
QDGZDCVAUDNJFG-FXQIFTODSA-N

> <PUBCHEM_XLOGP3>
-0.8

> <PUBCHEM_EXACT_MASS>
277.117489

> <PUBCHEM_MOLECULAR_FORMULA>
C12H15N5O3

> <PUBCHEM_MOLECULAR_WEIGHT>
277.2792

> <PUBCHEM_OPENEYE_CAN_SMILES>
C=C1C(CC(C1CO)O)N2C=NC3=C2NC(=NC3=O)N

> <PUBCHEM_OPENEYE_ISO_SMILES>
C=C1[C@H](C[C@@H]([C@H]1CO)O)N2C=NC3=C2NC(=NC3=O)N

> <PUBCHEM_CACTVS_TPSA>
126

> <PUBCHEM_MONOISOTOPIC_WEIGHT>
277.117489

> <PUBCHEM_TOTAL_CHARGE>
0

> <PUBCHEM_HEAVY_ATOM_COUNT>
20

> <PUBCHEM_ATOM_DEF_STEREO_COUNT>
3

> <PUBCHEM_ATOM_UDEF_STEREO_COUNT>
0

> <PUBCHEM_BOND_DEF_STEREO_COUNT>
0

> <PUBCHEM_BOND_UDEF_STEREO_COUNT>
0

> <PUBCHEM_ISOTOPIC_ATOM_COUNT>
0

> <PUBCHEM_COMPONENT_COUNT>
1

> <PUBCHEM_CACTVS_TAUTO_COUNT>
9

> <PUBCHEM_COORDINATE_TYPE>
1
5
255

> <PUBCHEM_BONDANNOTATIONS>
11  1  6
10  14  5
15  18  8
18  19  8
4  15  8
4  17  8
9  4  5
5  15  8
5  20  8
6  17  8
6  18  8
7  19  8
7  20  8

$$$$
