158440
  -OEChem-12171208232D

 96 93  0     1  0  0  0  0  0999 V2000
   11.5021    5.1340    0.0000 Gd  0  1  0  0  0  0  0  0  0  0  0  0
   10.0021    6.0000    0.0000 P   0  0  3  0  0  0  0  0  0  0  0  0
    6.5380    0.0000    0.0000 Na  0  3  0  0  0  0  0  0  0  0  0  0
   11.7341    3.0000    0.0000 Na  0  3  0  0  0  0  0  0  0  0  0  0
    4.8059    7.0000    0.0000 Na  0  3  0  0  0  0  0  0  0  0  0  0
   10.8681    6.5000    0.0000 O   0  0  0  0  0  0  0  0  0  0  0  0
    9.1360    5.5000    0.0000 O   0  0  0  0  0  0  0  0  0  0  0  0
   10.5021    5.1340    0.0000 O   0  5  0  0  0  0  0  0  0  0  0  0
    9.5021    6.8660    0.0000 O   0  0  0  0  0  0  0  0  0  0  0  0
    6.5380    1.0000    0.0000 O   0  5  0  0  0  0  0  0  0  0  0  0
   10.8681    2.5000    0.0000 O   0  5  0  0  0  0  0  0  0  0  0  0
    8.2700    1.0000    0.0000 O   0  0  0  0  0  0  0  0  0  0  0  0
   10.0021    4.0000    0.0000 O   0  0  0  0  0  0  0  0  0  0  0  0
    4.8059    6.0000    0.0000 O   0  5  0  0  0  0  0  0  0  0  0  0
    6.5380    6.0000    0.0000 O   0  0  0  0  0  0  0  0  0  0  0  0
    3.0739    1.0000    0.0000 O   0  5  0  0  0  0  0  0  0  0  0  0
    3.0739    4.0000    0.0000 O   0  5  0  0  0  0  0  0  0  0  0  0
    3.9399    5.5000    0.0000 O   0  0  0  0  0  0  0  0  0  0  0  0
    4.8059    1.0000    0.0000 O   0  0  0  0  0  0  0  0  0  0  0  0
    0.5369    6.0675    0.0000 O   0  0  0  0  0  0  0  0  0  0  0  0
    8.2700    3.0000    0.0000 N   0  0  0  0  0  0  0  0  0  0  0  0
    6.5380    4.0000    0.0000 N   0  0  3  0  0  0  0  0  0  0  0  0
    4.8059    3.0000    0.0000 N   0  0  0  0  0  0  0  0  0  0  0  0
   10.8681    9.5000    0.0000 C   0  0  0  0  0  0  0  0  0  0  0  0
   10.0021    9.0000    0.0000 C   0  0  0  0  0  0  0  0  0  0  0  0
   11.7341    9.0000    0.0000 C   0  0  0  0  0  0  0  0  0  0  0  0
   10.8681    7.5000    0.0000 C   0  0  0  0  0  0  0  0  0  0  0  0
   11.7341    8.0000    0.0000 C   0  0  0  0  0  0  0  0  0  0  0  0
   10.0021    8.0000    0.0000 C   0  0  0  0  0  0  0  0  0  0  0  0
   11.8078    9.8420    0.0000 C   0  0  0  0  0  0  0  0  0  0  0  0
   10.3681   10.3660    0.0000 C   0  0  0  0  0  0  0  0  0  0  0  0
   12.5738    9.1992    0.0000 C   0  0  0  0  0  0  0  0  0  0  0  0
    9.3681   10.3660    0.0000 C   0  0  0  0  0  0  0  0  0  0  0  0
   11.9814   10.8268    0.0000 C   0  0  0  0  0  0  0  0  0  0  0  0
   10.8681   11.2320    0.0000 C   0  0  0  0  0  0  0  0  0  0  0  0
    8.8681   11.2320    0.0000 C   0  0  0  0  0  0  0  0  0  0  0  0
   13.5135    9.5412    0.0000 C   0  0  0  0  0  0  0  0  0  0  0  0
   10.3681   12.0981    0.0000 C   0  0  0  0  0  0  0  0  0  0  0  0
   12.9211   11.1688    0.0000 C   0  0  0  0  0  0  0  0  0  0  0  0
   13.6872   10.5261    0.0000 C   0  0  0  0  0  0  0  0  0  0  0  0
    9.3681   12.0981    0.0000 C   0  0  0  0  0  0  0  0  0  0  0  0
    8.2700    4.0000    0.0000 C   0  0  1  0  0  0  0  0  0  0  0  0
    9.1360    4.5000    0.0000 C   0  0  0  0  0  0  0  0  0  0  0  0
    7.4040    4.5000    0.0000 C   0  0  0  0  0  0  0  0  0  0  0  0
    6.5380    3.0000    0.0000 C   0  0  0  0  0  0  0  0  0  0  0  0
    7.4040    2.5000    0.0000 C   0  0  0  0  0  0  0  0  0  0  0  0
    9.1360    2.5000    0.0000 C   0  0  0  0  0  0  0  0  0  0  0  0
    5.6720    4.5000    0.0000 C   0  0  0  0  0  0  0  0  0  0  0  0
    5.6720    2.5000    0.0000 C   0  0  0  0  0  0  0  0  0  0  0  0
   10.0021    3.0000    0.0000 C   0  0  0  0  0  0  0  0  0  0  0  0
    7.4040    1.5000    0.0000 C   0  0  0  0  0  0  0  0  0  0  0  0
    5.6720    5.5000    0.0000 C   0  0  0  0  0  0  0  0  0  0  0  0
    3.9399    2.5000    0.0000 C   0  0  0  0  0  0  0  0  0  0  0  0
    4.8059    4.0000    0.0000 C   0  0  0  0  0  0  0  0  0  0  0  0
    3.9399    1.5000    0.0000 C   0  0  0  0  0  0  0  0  0  0  0  0
    3.9399    4.5000    0.0000 C   0  0  0  0  0  0  0  0  0  0  0  0
    9.7900    9.5826    0.0000 H   0  0  0  0  0  0  0  0  0  0  0  0
    9.3915    8.8923    0.0000 H   0  0  0  0  0  0  0  0  0  0  0  0
   12.3447    8.8923    0.0000 H   0  0  0  0  0  0  0  0  0  0  0  0
   11.9462    9.5826    0.0000 H   0  0  0  0  0  0  0  0  0  0  0  0
   10.3312    7.1900    0.0000 H   0  0  0  0  0  0  0  0  0  0  0  0
   11.9462    7.4174    0.0000 H   0  0  0  0  0  0  0  0  0  0  0  0
   12.3447    8.1077    0.0000 H   0  0  0  0  0  0  0  0  0  0  0  0
    9.3915    8.1077    0.0000 H   0  0  0  0  0  0  0  0  0  0  0  0
    9.7900    7.4174    0.0000 H   0  0  0  0  0  0  0  0  0  0  0  0
    9.0581    9.8291    0.0000 H   0  0  0  0  0  0  0  0  0  0  0  0
   12.4662    8.5886    0.0000 H   0  0  0  0  0  0  0  0  0  0  0  0
   11.4881   11.2320    0.0000 H   0  0  0  0  0  0  0  0  0  0  0  0
   11.5065   11.2254    0.0000 H   0  0  0  0  0  0  0  0  0  0  0  0
   13.9885    9.1427    0.0000 H   0  0  0  0  0  0  0  0  0  0  0  0
    8.2481   11.2320    0.0000 H   0  0  0  0  0  0  0  0  0  0  0  0
   13.0288   11.7794    0.0000 H   0  0  0  0  0  0  0  0  0  0  0  0
   10.6781   12.6350    0.0000 H   0  0  0  0  0  0  0  0  0  0  0  0
   14.2698   10.7381    0.0000 H   0  0  0  0  0  0  0  0  0  0  0  0
    9.0581   12.6350    0.0000 H   0  0  0  0  0  0  0  0  0  0  0  0
    7.7331    3.6900    0.0000 H   0  0  0  0  0  0  0  0  0  0  0  0
    9.3481    3.9174    0.0000 H   0  0  0  0  0  0  0  0  0  0  0  0
    9.7466    4.6077    0.0000 H   0  0  0  0  0  0  0  0  0  0  0  0
    7.8025    4.9750    0.0000 H   0  0  0  0  0  0  0  0  0  0  0  0
    7.0055    4.9750    0.0000 H   0  0  0  0  0  0  0  0  0  0  0  0
    6.7500    2.4174    0.0000 H   0  0  0  0  0  0  0  0  0  0  0  0
    7.1486    3.1077    0.0000 H   0  0  0  0  0  0  0  0  0  0  0  0
    8.7375    2.0250    0.0000 H   0  0  0  0  0  0  0  0  0  0  0  0
    9.5346    2.0250    0.0000 H   0  0  0  0  0  0  0  0  0  0  0  0
    7.1920    3.0826    0.0000 H   0  0  0  0  0  0  0  0  0  0  0  0
    6.7934    2.3923    0.0000 H   0  0  0  0  0  0  0  0  0  0  0  0
    5.0614    4.6077    0.0000 H   0  0  0  0  0  0  0  0  0  0  0  0
    5.4599    3.9174    0.0000 H   0  0  0  0  0  0  0  0  0  0  0  0
    5.2734    2.0250    0.0000 H   0  0  0  0  0  0  0  0  0  0  0  0
    6.0705    2.0250    0.0000 H   0  0  0  0  0  0  0  0  0  0  0  0
    3.7278    3.0826    0.0000 H   0  0  0  0  0  0  0  0  0  0  0  0
    3.3293    2.3923    0.0000 H   0  0  0  0  0  0  0  0  0  0  0  0
    5.4165    3.8923    0.0000 H   0  0  0  0  0  0  0  0  0  0  0  0
    5.0180    4.5826    0.0000 H   0  0  0  0  0  0  0  0  0  0  0  0
    1.0739    6.3775    0.0000 H   0  0  0  0  0  0  0  0  0  0  0  0
    0.0000    6.3775    0.0000 H   0  0  0  0  0  0  0  0  0  0  0  0
  2  6  1  0  0  0  0
  2  7  1  0  0  0  0
  2  8  1  0  0  0  0
  2  9  2  0  0  0  0
  6 27  1  0  0  0  0
  7 43  1  0  0  0  0
 10 51  1  0  0  0  0
 11 50  1  0  0  0  0
 12 51  2  0  0  0  0
 13 50  2  0  0  0  0
 14 52  1  0  0  0  0
 15 52  2  0  0  0  0
 16 55  1  0  0  0  0
 17 56  1  0  0  0  0
 18 56  2  0  0  0  0
 19 55  2  0  0  0  0
 20 95  1  0  0  0  0
 20 96  1  0  0  0  0
 42 21  1  6  0  0  0
 21 46  1  0  0  0  0
 21 47  1  0  0  0  0
 22 44  1  0  0  0  0
 22 45  1  0  0  0  0
 22 48  1  0  0  0  0
 23 49  1  0  0  0  0
 23 53  1  0  0  0  0
 23 54  1  0  0  0  0
 24 25  1  0  0  0  0
 24 26  1  0  0  0  0
 24 30  1  0  0  0  0
 24 31  1  0  0  0  0
 25 29  1  0  0  0  0
 25 57  1  0  0  0  0
 25 58  1  0  0  0  0
 26 28  1  0  0  0  0
 26 59  1  0  0  0  0
 26 60  1  0  0  0  0
 27 28  1  0  0  0  0
 27 29  1  0  0  0  0
 27 61  1  0  0  0  0
 28 62  1  0  0  0  0
 28 63  1  0  0  0  0
 29 64  1  0  0  0  0
 29 65  1  0  0  0  0
 30 32  2  0  0  0  0
 30 34  1  0  0  0  0
 31 33  2  0  0  0  0
 31 35  1  0  0  0  0
 32 37  1  0  0  0  0
 32 67  1  0  0  0  0
 33 36  1  0  0  0  0
 33 66  1  0  0  0  0
 34 39  2  0  0  0  0
 34 69  1  0  0  0  0
 35 38  2  0  0  0  0
 35 68  1  0  0  0  0
 36 41  2  0  0  0  0
 36 71  1  0  0  0  0
 37 40  2  0  0  0  0
 37 70  1  0  0  0  0
 38 41  1  0  0  0  0
 38 73  1  0  0  0  0
 39 40  1  0  0  0  0
 39 72  1  0  0  0  0
 40 74  1  0  0  0  0
 41 75  1  0  0  0  0
 42 43  1  0  0  0  0
 42 44  1  0  0  0  0
 42 76  1  0  0  0  0
 43 77  1  0  0  0  0
 43 78  1  0  0  0  0
 44 79  1  0  0  0  0
 44 80  1  0  0  0  0
 45 49  1  0  0  0  0
 45 81  1  0  0  0  0
 45 82  1  0  0  0  0
 46 51  1  0  0  0  0
 46 85  1  0  0  0  0
 46 86  1  0  0  0  0
 47 50  1  0  0  0  0
 47 83  1  0  0  0  0
 47 84  1  0  0  0  0
 48 52  1  0  0  0  0
 48 87  1  0  0  0  0
 48 88  1  0  0  0  0
 49 89  1  0  0  0  0
 49 90  1  0  0  0  0
 53 55  1  0  0  0  0
 53 91  1  0  0  0  0
 53 92  1  0  0  0  0
 54 56  1  0  0  0  0
 54 93  1  0  0  0  0
 54 94  1  0  0  0  0
M  CHG  8   1   3   3   1   4   1   5   1   8  -1  10  -1  11  -1  14  -1
M  CHG  2  16  -1  17  -1
M  END
> <PUBCHEM_COMPOUND_CID>
158440

> <PUBCHEM_COMPOUND_CANONICALIZED>
1

> <PUBCHEM_CACTVS_COMPLEXITY>
1130

> <PUBCHEM_CACTVS_HBOND_ACCEPTOR>
18

> <PUBCHEM_CACTVS_HBOND_DONOR>
1

> <PUBCHEM_CACTVS_ROTATABLE_BOND>
18

> <PUBCHEM_CACTVS_SUBSKEYS>
AAADcfB/PDIAAAAAAAAAAAAgAAAAAAAAAAAwYMAAAAAAAAABQAAAHgAACCAADjzhmAYwCIMAARCIQiDSCIACAAAgAAAIiACIAIgKYCKAETCUIAAmgACYiAeAwPAPgAAAAAAAAABAAAAAAAAAAAAAAAAAAA==

> <PUBCHEM_IUPAC_OPENEYE_NAME>
trisodium;2-[[(2R)-2-[bis(carboxylatomethyl)amino]-3-[(4,4-diphenylcyclohexoxy)-oxido-phosphoryl]oxy-propyl]-[2-[bis(carboxylatomethyl)amino]ethyl]amino]acetate;gadolinium(3+);hydrate

> <PUBCHEM_IUPAC_CAS_NAME>
trisodium;2-[[(2R)-2-[bis(carboxylatomethyl)amino]-3-[(4,4-diphenylcyclohexyl)oxy-oxidophosphoryl]oxypropyl]-[2-[bis(carboxylatomethyl)amino]ethyl]amino]acetate;gadolinium(3+);hydrate

> <PUBCHEM_IUPAC_NAME>
trisodium;2-[[(2R)-2-[bis(carboxylatomethyl)amino]-3-[(4,4-diphenylcyclohexyl)oxy-oxidophosphoryl]oxypropyl]-[2-[bis(carboxylatomethyl)amino]ethyl]amino]acetate;gadolinium(3+);hydrate

> <PUBCHEM_IUPAC_SYSTEMATIC_NAME>
trisodium;2-[[(2R)-2-[bis(2-oxidanidyl-2-oxidanylidene-ethyl)amino]-3-[(4,4-diphenylcyclohexyl)oxy-oxidanidyl-phosphoryl]oxy-propyl]-[2-[bis(2-oxidanidyl-2-oxidanylidene-ethyl)amino]ethyl]amino]ethanoate;gadolinium(3+);hydrate

> <PUBCHEM_IUPAC_TRADITIONAL_NAME>
trisodium;2-[[(2R)-2-[bis(carboxylatomethyl)amino]-3-[(4,4-diphenylcyclohexoxy)-oxido-phosphoryl]oxy-propyl]-[2-[bis(carboxylatomethyl)amino]ethyl]amino]acetate;gadolinium(3+);hydrate

> <PUBCHEM_IUPAC_INCHI>
InChI=1S/C33H44N3O14P.Gd.3Na.H2O/c37-28(38)18-34(15-16-35(19-29(39)40)20-30(41)42)17-26(36(21-31(43)44)22-32(45)46)23-49-51(47,48)50-27-11-13-33(14-12-27,24-7-3-1-4-8-24)25-9-5-2-6-10-25;;;;;/h1-10,26-27H,11-23H2,(H,37,38)(H,39,40)(H,41,42)(H,43,44)(H,45,46)(H,47,48);;;;;1H2/q;+3;3*+1;/p-6/t26-;;;;;/m1...../s1

> <PUBCHEM_IUPAC_INCHIKEY>
PIZALBORPSCYJU-QSQMUHTISA-H

> <PUBCHEM_EXACT_MASS>
976.113116

> <PUBCHEM_MOLECULAR_FORMULA>
C33H40GdN3Na3O15P

> <PUBCHEM_MOLECULAR_WEIGHT>
975.87487

> <PUBCHEM_OPENEYE_CAN_SMILES>
C1CC(CCC1OP(=O)([O-])OCC(CN(CCN(CC(=O)[O-])CC(=O)[O-])CC(=O)[O-])N(CC(=O)[O-])CC(=O)[O-])(C2=CC=CC=C2)C3=CC=CC=C3.O.[Na+].[Na+].[Na+].[Gd+3]

> <PUBCHEM_OPENEYE_ISO_SMILES>
C1CC(CCC1OP(=O)([O-])OC[C@@H](CN(CCN(CC(=O)[O-])CC(=O)[O-])CC(=O)[O-])N(CC(=O)[O-])CC(=O)[O-])(C2=CC=CC=C2)C3=CC=CC=C3.O.[Na+].[Na+].[Na+].[Gd+3]

> <PUBCHEM_CACTVS_TPSA>
270

> <PUBCHEM_MONOISOTOPIC_WEIGHT>
976.113116

> <PUBCHEM_TOTAL_CHARGE>
0

> <PUBCHEM_HEAVY_ATOM_COUNT>
56

> <PUBCHEM_ATOM_DEF_STEREO_COUNT>
1

> <PUBCHEM_ATOM_UDEF_STEREO_COUNT>
0

> <PUBCHEM_BOND_DEF_STEREO_COUNT>
0

> <PUBCHEM_BOND_UDEF_STEREO_COUNT>
0

> <PUBCHEM_ISOTOPIC_ATOM_COUNT>
0

> <PUBCHEM_COMPONENT_COUNT>
6

> <PUBCHEM_CACTVS_TAUTO_COUNT>
1

> <PUBCHEM_COORDINATE_TYPE>
1
5
255

> <PUBCHEM_BONDANNOTATIONS>
42  21  6
30  32  8
30  34  8
31  33  8
31  35  8
32  37  8
33  36  8
34  39  8
35  38  8
36  41  8
37  40  8
38  41  8
39  40  8

$$$$
