160051
  -OEChem-12171208232D

106101  0     1  0  0  0  0  0999 V2000
    7.5088    0.9749    0.0000 Cl  0  0  0  0  0  0  0  0  0  0  0  0
    0.0000    8.0634    0.0000 Cl  0  0  0  0  0  0  0  0  0  0  0  0
    8.9161    3.8410    0.0000 Cl  0  5  0  0  0  0  0  0  0  0  0  0
    9.7408    1.8410    0.0000 O   0  0  0  0  0  0  0  0  0  0  0  0
    5.2690    7.7439    0.0000 N   0  3  0  0  0  0  0  0  0  0  0  0
   11.3312    8.2439    0.0000 N   0  0  0  0  0  0  0  0  0  0  0  0
    6.1350   11.7669    0.0000 N   0  0  0  0  0  0  0  0  0  0  0  0
    7.8671   15.5069    0.0000 N   0  0  0  0  0  0  0  0  0  0  0  0
    6.1350    8.2439    0.0000 C   0  0  0  0  0  0  0  0  0  0  0  0
    7.0010    7.7439    0.0000 C   0  0  0  0  0  0  0  0  0  0  0  0
    7.8671    8.2439    0.0000 C   0  0  0  0  0  0  0  0  0  0  0  0
    4.4030    7.2439    0.0000 C   0  0  0  0  0  0  0  0  0  0  0  0
    4.7690    8.6100    0.0000 C   0  0  0  0  0  0  0  0  0  0  0  0
    5.7690    6.8779    0.0000 C   0  0  0  0  0  0  0  0  0  0  0  0
    8.7331    7.7439    0.0000 C   0  0  0  0  0  0  0  0  0  0  0  0
    9.5991    8.2439    0.0000 C   0  0  0  0  0  0  0  0  0  0  0  0
   10.4651    7.7439    0.0000 C   0  0  0  0  0  0  0  0  0  0  0  0
   10.4651   12.2669    0.0000 C   0  0  0  0  0  0  0  0  0  0  0  0
   11.3312   11.7669    0.0000 C   0  0  0  0  0  0  0  0  0  0  0  0
    9.5991   11.7669    0.0000 C   0  0  0  0  0  0  0  0  0  0  0  0
   12.1972   12.2669    0.0000 C   0  0  0  0  0  0  0  0  0  0  0  0
    8.7331   12.2669    0.0000 C   0  0  0  0  0  0  0  0  0  0  0  0
   13.0632   11.7669    0.0000 C   0  0  0  0  0  0  0  0  0  0  0  0
    7.8671   11.7669    0.0000 C   0  0  0  0  0  0  0  0  0  0  0  0
   13.9292   12.2669    0.0000 C   0  0  0  0  0  0  0  0  0  0  0  0
    7.0010   12.2669    0.0000 C   0  0  0  0  0  0  0  0  0  0  0  0
   12.1972    7.7439    0.0000 C   0  0  0  0  0  0  0  0  0  0  0  0
    9.2408    0.9749    0.0000 C   0  0  3  0  0  0  0  0  0  0  0  0
   14.7953   11.7669    0.0000 C   0  0  0  0  0  0  0  0  0  0  0  0
   10.2408    0.9749    0.0000 C   0  0  0  0  0  0  0  0  0  0  0  0
   13.0632    8.2439    0.0000 C   0  0  0  0  0  0  0  0  0  0  0  0
    5.2690   12.2669    0.0000 C   0  0  0  0  0  0  0  0  0  0  0  0
    8.3748    0.4749    0.0000 C   0  0  0  0  0  0  0  0  0  0  0  0
    4.4030   11.7669    0.0000 C   0  0  0  0  0  0  0  0  0  0  0  0
   13.9292    7.7439    0.0000 C   0  0  0  0  0  0  0  0  0  0  0  0
    3.5369   12.2669    0.0000 C   0  0  0  0  0  0  0  0  0  0  0  0
    8.7331   16.0069    0.0000 C   0  0  0  0  0  0  0  0  0  0  0  0
    9.5991   15.5069    0.0000 C   0  0  0  0  0  0  0  0  0  0  0  0
   10.4651   16.0069    0.0000 C   0  0  0  0  0  0  0  0  0  0  0  0
    6.5335    8.7189    0.0000 H   0  0  0  0  0  0  0  0  0  0  0  0
    5.7365    8.7189    0.0000 H   0  0  0  0  0  0  0  0  0  0  0  0
    6.6025    7.2690    0.0000 H   0  0  0  0  0  0  0  0  0  0  0  0
    7.3996    7.2690    0.0000 H   0  0  0  0  0  0  0  0  0  0  0  0
    8.2656    8.7189    0.0000 H   0  0  0  0  0  0  0  0  0  0  0  0
    7.4685    8.7189    0.0000 H   0  0  0  0  0  0  0  0  0  0  0  0
    4.0930    7.7809    0.0000 H   0  0  0  0  0  0  0  0  0  0  0  0
    3.8660    6.9339    0.0000 H   0  0  0  0  0  0  0  0  0  0  0  0
    4.7130    6.7070    0.0000 H   0  0  0  0  0  0  0  0  0  0  0  0
    5.3059    8.9200    0.0000 H   0  0  0  0  0  0  0  0  0  0  0  0
    4.4590    9.1469    0.0000 H   0  0  0  0  0  0  0  0  0  0  0  0
    4.2320    8.3000    0.0000 H   0  0  0  0  0  0  0  0  0  0  0  0
    5.2320    6.5679    0.0000 H   0  0  0  0  0  0  0  0  0  0  0  0
    6.0790    6.3410    0.0000 H   0  0  0  0  0  0  0  0  0  0  0  0
    6.3059    7.1879    0.0000 H   0  0  0  0  0  0  0  0  0  0  0  0
    8.3346    7.2690    0.0000 H   0  0  0  0  0  0  0  0  0  0  0  0
    9.1316    7.2690    0.0000 H   0  0  0  0  0  0  0  0  0  0  0  0
    9.9976    8.7189    0.0000 H   0  0  0  0  0  0  0  0  0  0  0  0
    9.2006    8.7189    0.0000 H   0  0  0  0  0  0  0  0  0  0  0  0
   10.0666    7.2690    0.0000 H   0  0  0  0  0  0  0  0  0  0  0  0
   10.8637    7.2690    0.0000 H   0  0  0  0  0  0  0  0  0  0  0  0
   10.8637   12.7418    0.0000 H   0  0  0  0  0  0  0  0  0  0  0  0
   10.0666   12.7418    0.0000 H   0  0  0  0  0  0  0  0  0  0  0  0
   10.9326   11.2919    0.0000 H   0  0  0  0  0  0  0  0  0  0  0  0
   11.7297   11.2919    0.0000 H   0  0  0  0  0  0  0  0  0  0  0  0
    9.2006   11.2919    0.0000 H   0  0  0  0  0  0  0  0  0  0  0  0
    9.9976   11.2919    0.0000 H   0  0  0  0  0  0  0  0  0  0  0  0
   12.5957   12.7418    0.0000 H   0  0  0  0  0  0  0  0  0  0  0  0
   11.7987   12.7418    0.0000 H   0  0  0  0  0  0  0  0  0  0  0  0
    9.1316   12.7418    0.0000 H   0  0  0  0  0  0  0  0  0  0  0  0
    8.3346   12.7418    0.0000 H   0  0  0  0  0  0  0  0  0  0  0  0
   12.6647   11.2919    0.0000 H   0  0  0  0  0  0  0  0  0  0  0  0
   13.4617   11.2919    0.0000 H   0  0  0  0  0  0  0  0  0  0  0  0
    7.4685   11.2919    0.0000 H   0  0  0  0  0  0  0  0  0  0  0  0
    8.2656   11.2919    0.0000 H   0  0  0  0  0  0  0  0  0  0  0  0
   11.3312    8.8639    0.0000 H   0  0  0  0  0  0  0  0  0  0  0  0
   14.3278   12.7418    0.0000 H   0  0  0  0  0  0  0  0  0  0  0  0
   13.5307   12.7418    0.0000 H   0  0  0  0  0  0  0  0  0  0  0  0
    7.3996   12.7418    0.0000 H   0  0  0  0  0  0  0  0  0  0  0  0
    6.6025   12.7418    0.0000 H   0  0  0  0  0  0  0  0  0  0  0  0
   11.7987    7.2690    0.0000 H   0  0  0  0  0  0  0  0  0  0  0  0
   12.5957    7.2690    0.0000 H   0  0  0  0  0  0  0  0  0  0  0  0
    8.8024    1.4134    0.0000 H   0  0  0  0  0  0  0  0  0  0  0  0
   14.4853   11.2300    0.0000 H   0  0  0  0  0  0  0  0  0  0  0  0
   15.3322   11.4569    0.0000 H   0  0  0  0  0  0  0  0  0  0  0  0
   15.1053   12.3038    0.0000 H   0  0  0  0  0  0  0  0  0  0  0  0
    6.1350   11.1469    0.0000 H   0  0  0  0  0  0  0  0  0  0  0  0
   10.3485    0.3644    0.0000 H   0  0  0  0  0  0  0  0  0  0  0  0
   10.8234    1.1870    0.0000 H   0  0  0  0  0  0  0  0  0  0  0  0
   13.0632    8.8639    0.0000 H   0  0  0  0  0  0  0  0  0  0  0  0
    7.9763    0.0000    0.0000 H   0  0  0  0  0  0  0  0  0  0  0  0
    8.7733    0.0000    0.0000 H   0  0  0  0  0  0  0  0  0  0  0  0
    5.6675   12.7418    0.0000 H   0  0  0  0  0  0  0  0  0  0  0  0
    4.8705   12.7418    0.0000 H   0  0  0  0  0  0  0  0  0  0  0  0
    4.4030   11.1469    0.0000 H   0  0  0  0  0  0  0  0  0  0  0  0
   13.9292    7.1239    0.0000 H   0  0  0  0  0  0  0  0  0  0  0  0
   14.4662    8.0539    0.0000 H   0  0  0  0  0  0  0  0  0  0  0  0
    3.5369   12.8869    0.0000 H   0  0  0  0  0  0  0  0  0  0  0  0
    3.0000   11.9569    0.0000 H   0  0  0  0  0  0  0  0  0  0  0  0
    9.1316   16.4818    0.0000 H   0  0  0  0  0  0  0  0  0  0  0  0
    8.3346   16.4818    0.0000 H   0  0  0  0  0  0  0  0  0  0  0  0
    9.5991   14.8869    0.0000 H   0  0  0  0  0  0  0  0  0  0  0  0
    7.3301   15.8169    0.0000 H   0  0  0  0  0  0  0  0  0  0  0  0
    7.8671   14.8869    0.0000 H   0  0  0  0  0  0  0  0  0  0  0  0
   11.0021   15.6969    0.0000 H   0  0  0  0  0  0  0  0  0  0  0  0
   10.4651   16.6269    0.0000 H   0  0  0  0  0  0  0  0  0  0  0  0
    1.0000    8.0634    0.0000 H   0  0  0  0  0  0  0  0  0  0  0  0
  1 33  1  0  0  0  0
  2106  1  0  0  0  0
  4 28  1  0  0  0  0
  4 30  1  0  0  0  0
  5  9  1  0  0  0  0
  5 12  1  0  0  0  0
  5 13  1  0  0  0  0
  5 14  1  0  0  0  0
  6 17  1  0  0  0  0
  6 27  1  0  0  0  0
  6 75  1  0  0  0  0
  7 26  1  0  0  0  0
  7 32  1  0  0  0  0
  7 86  1  0  0  0  0
  8 37  1  0  0  0  0
  8102  1  0  0  0  0
  8103  1  0  0  0  0
  9 10  1  0  0  0  0
  9 40  1  0  0  0  0
  9 41  1  0  0  0  0
 10 11  1  0  0  0  0
 10 42  1  0  0  0  0
 10 43  1  0  0  0  0
 11 15  1  0  0  0  0
 11 44  1  0  0  0  0
 11 45  1  0  0  0  0
 12 46  1  0  0  0  0
 12 47  1  0  0  0  0
 12 48  1  0  0  0  0
 13 49  1  0  0  0  0
 13 50  1  0  0  0  0
 13 51  1  0  0  0  0
 14 52  1  0  0  0  0
 14 53  1  0  0  0  0
 14 54  1  0  0  0  0
 15 16  1  0  0  0  0
 15 55  1  0  0  0  0
 15 56  1  0  0  0  0
 16 17  1  0  0  0  0
 16 57  1  0  0  0  0
 16 58  1  0  0  0  0
 17 59  1  0  0  0  0
 17 60  1  0  0  0  0
 18 19  1  0  0  0  0
 18 20  1  0  0  0  0
 18 61  1  0  0  0  0
 18 62  1  0  0  0  0
 19 21  1  0  0  0  0
 19 63  1  0  0  0  0
 19 64  1  0  0  0  0
 20 22  1  0  0  0  0
 20 65  1  0  0  0  0
 20 66  1  0  0  0  0
 21 23  1  0  0  0  0
 21 67  1  0  0  0  0
 21 68  1  0  0  0  0
 22 24  1  0  0  0  0
 22 69  1  0  0  0  0
 22 70  1  0  0  0  0
 23 25  1  0  0  0  0
 23 71  1  0  0  0  0
 23 72  1  0  0  0  0
 24 26  1  0  0  0  0
 24 73  1  0  0  0  0
 24 74  1  0  0  0  0
 25 29  1  0  0  0  0
 25 76  1  0  0  0  0
 25 77  1  0  0  0  0
 26 78  1  0  0  0  0
 26 79  1  0  0  0  0
 27 31  1  0  0  0  0
 27 80  1  0  0  0  0
 27 81  1  0  0  0  0
 28 30  1  0  0  0  0
 28 33  1  0  0  0  0
 28 82  1  0  0  0  0
 29 83  1  0  0  0  0
 29 84  1  0  0  0  0
 29 85  1  0  0  0  0
 30 87  1  0  0  0  0
 30 88  1  0  0  0  0
 31 35  2  0  0  0  0
 31 89  1  0  0  0  0
 32 34  1  0  0  0  0
 32 92  1  0  0  0  0
 32 93  1  0  0  0  0
 33 90  1  0  0  0  0
 33 91  1  0  0  0  0
 34 36  2  0  0  0  0
 34 94  1  0  0  0  0
 35 95  1  0  0  0  0
 35 96  1  0  0  0  0
 36 97  1  0  0  0  0
 36 98  1  0  0  0  0
 37 38  1  0  0  0  0
 37 99  1  0  0  0  0
 37100  1  0  0  0  0
 38 39  2  0  0  0  0
 38101  1  0  0  0  0
 39104  1  0  0  0  0
 39105  1  0  0  0  0
M  CHG  2   3  -1   5   1
M  END
> <PUBCHEM_COMPOUND_CID>
160051

> <PUBCHEM_COMPOUND_CANONICALIZED>
1

> <PUBCHEM_CACTVS_COMPLEXITY>
301

> <PUBCHEM_CACTVS_HBOND_ACCEPTOR>
5

> <PUBCHEM_CACTVS_HBOND_DONOR>
4

> <PUBCHEM_CACTVS_ROTATABLE_BOND>
22

> <PUBCHEM_CACTVS_SUBSKEYS>
AAADcfB7oAAGAAAAAAAAAAAAEgAAAAAAAAAAAAAAAAAAAAAAAAAAHgIQAAAACBfhgEYCAAPABACAACBCAACAAAAAAAAIAIAIAwAAAAIAgQAEAAAAEACAAAEQgIAAAAAAAAAAAAAAAAAAAAAAAAAAAAAAAA==

> <PUBCHEM_IUPAC_OPENEYE_NAME>
6-(allylamino)hexyl-trimethyl-ammonium;N-allyldecan-1-amine;2-(chloromethyl)oxirane;prop-2-en-1-amine;chloride;hydrochloride

> <PUBCHEM_IUPAC_CAS_NAME>
2-(chloromethyl)oxirane;2-propen-1-amine;N-prop-2-enyl-1-decanamine;trimethyl-[6-(prop-2-enylamino)hexyl]ammonium;chloride;hydrochloride

> <PUBCHEM_IUPAC_NAME>
2-(chloromethyl)oxirane;prop-2-en-1-amine;N-prop-2-enyldecan-1-amine;trimethyl-[6-(prop-2-enylamino)hexyl]azanium;chloride;hydrochloride

> <PUBCHEM_IUPAC_SYSTEMATIC_NAME>
2-(chloromethyl)oxirane;prop-2-en-1-amine;N-prop-2-enyldecan-1-amine;trimethyl-[6-(prop-2-enylamino)hexyl]azanium;chloride;hydrochloride

> <PUBCHEM_IUPAC_TRADITIONAL_NAME>
allylamine;6-(allylamino)hexyl-trimethyl-ammonium;allyl(decyl)amine;2-(chloromethyl)oxirane;chloride;hydrochloride

> <PUBCHEM_IUPAC_INCHI>
InChI=1S/C13H27N.C12H27N2.C3H5ClO.C3H7N.2ClH/c1-3-5-6-7-8-9-10-11-13-14-12-4-2;1-5-10-13-11-8-6-7-9-12-14(2,3)4;4-1-3-2-5-3;1-2-3-4;;/h4,14H,2-3,5-13H2,1H3;5,13H,1,6-12H2,2-4H3;3H,1-2H2;2H,1,3-4H2;2*1H/q;+1;;;;/p-1

> <PUBCHEM_IUPAC_INCHIKEY>
VTAKZNRDSPNOAU-UHFFFAOYSA-M

> <PUBCHEM_EXACT_MASS>
616.438046

> <PUBCHEM_MOLECULAR_FORMULA>
C31H67Cl3N4O

> <PUBCHEM_MOLECULAR_WEIGHT>
618.24888

> <PUBCHEM_OPENEYE_CAN_SMILES>
CCCCCCCCCCNCC=C.C[N+](C)(C)CCCCCCNCC=C.C=CCN.C1C(O1)CCl.Cl.[Cl-]

> <PUBCHEM_OPENEYE_ISO_SMILES>
CCCCCCCCCCNCC=C.C[N+](C)(C)CCCCCCNCC=C.C=CCN.C1C(O1)CCl.Cl.[Cl-]

> <PUBCHEM_CACTVS_TPSA>
62.6

> <PUBCHEM_MONOISOTOPIC_WEIGHT>
616.438046

> <PUBCHEM_TOTAL_CHARGE>
0

> <PUBCHEM_HEAVY_ATOM_COUNT>
39

> <PUBCHEM_ATOM_DEF_STEREO_COUNT>
0

> <PUBCHEM_ATOM_UDEF_STEREO_COUNT>
1

> <PUBCHEM_BOND_DEF_STEREO_COUNT>
0

> <PUBCHEM_BOND_UDEF_STEREO_COUNT>
0

> <PUBCHEM_ISOTOPIC_ATOM_COUNT>
0

> <PUBCHEM_COMPONENT_COUNT>
6

> <PUBCHEM_CACTVS_TAUTO_COUNT>
1

> <PUBCHEM_COORDINATE_TYPE>
1
5
255

> <PUBCHEM_BONDANNOTATIONS>
28  33  3

$$$$
