163742
  -OEChem-12171208232D

144148  0     1  0  0  0  0  0999 V2000
    9.4651    3.7885    0.0000 S   0  0  0  0  0  0  0  0  0  0  0  0
    7.7331    1.7885    0.0000 S   0  0  0  0  0  0  0  0  0  0  0  0
   16.0632    0.5564    0.0000 S   0  0  0  0  0  0  0  0  0  0  0  0
   16.5632    6.6186    0.0000 S   0  0  0  0  0  0  0  0  0  0  0  0
    8.5991   -6.7115    0.0000 S   0  0  0  0  0  0  0  0  0  0  0  0
   12.1972   -1.2115    0.0000 S   0  0  0  0  0  0  0  0  0  0  0  0
   19.5632    1.4224    0.0000 S   0  0  0  0  0  0  0  0  0  0  0  0
    3.4030   -3.7115    0.0000 S   0  0  0  0  0  0  0  0  0  0  0  0
   11.1972    0.7885    0.0000 O   0  0  0  0  0  0  0  0  0  0  0  0
   12.0632    2.2885    0.0000 O   0  0  0  0  0  0  0  0  0  0  0  0
    8.5991    0.2885    0.0000 O   0  0  0  0  0  0  0  0  0  0  0  0
   14.5632    3.1545    0.0000 O   0  0  0  0  0  0  0  0  0  0  0  0
   16.0632    2.2885    0.0000 O   0  0  0  0  0  0  0  0  0  0  0  0
    8.5991    2.2885    0.0000 O   0  0  0  0  0  0  0  0  0  0  0  0
    9.4651   -1.2115    0.0000 O   0  0  0  0  0  0  0  0  0  0  0  0
    8.5991   -3.7115    0.0000 O   0  0  0  0  0  0  0  0  0  0  0  0
   18.0632    4.0205    0.0000 O   0  0  0  0  0  0  0  0  0  0  0  0
    6.8671   -3.7115    0.0000 O   0  0  0  0  0  0  0  0  0  0  0  0
   15.0632    0.5564    0.0000 O   0  0  0  0  0  0  0  0  0  0  0  0
   13.0633    0.5565    0.0000 O   0  0  0  0  0  0  0  0  0  0  0  0
    6.8671   -0.7115    0.0000 O   0  0  0  0  0  0  0  0  0  0  0  0
    6.8671   -2.7115    0.0000 O   0  0  0  0  0  0  0  0  0  0  0  0
   11.1972   -1.2115    0.0000 O   0  0  0  0  0  0  0  0  0  0  0  0
   15.0632    4.0205    0.0000 O   0  0  0  0  0  0  0  0  0  0  0  0
   18.0632    5.7526    0.0000 O   0  0  0  0  0  0  0  0  0  0  0  0
    6.8671   -6.7115    0.0000 O   0  0  0  0  0  0  0  0  0  0  0  0
    5.1350   -5.7115    0.0000 O   0  0  0  0  0  0  0  0  0  0  0  0
   19.0632    2.2885    0.0000 O   0  0  0  0  0  0  0  0  0  0  0  0
   13.5632    4.8865    0.0000 O   0  0  0  0  0  0  0  0  0  0  0  0
    8.5991    4.2885    0.0000 O   0  0  0  0  0  0  0  0  0  0  0  0
   12.0632    4.0205    0.0000 O   0  0  0  0  0  0  0  0  0  0  0  0
    9.9651    4.6545    0.0000 O   0  0  0  0  0  0  0  0  0  0  0  0
    8.9651    2.9224    0.0000 O   0  0  0  0  0  0  0  0  0  0  0  0
   10.3312   -3.7115    0.0000 O   0  0  0  0  0  0  0  0  0  0  0  0
    6.8671    1.2885    0.0000 O   0  0  0  0  0  0  0  0  0  0  0  0
    4.2690   -4.2115    0.0000 O   0  0  0  0  0  0  0  0  0  0  0  0
   11.1972   -2.2115    0.0000 O   0  0  0  0  0  0  0  0  0  0  0  0
    7.2331    2.6545    0.0000 O   0  0  0  0  0  0  0  0  0  0  0  0
    8.2331    0.9224    0.0000 O   0  0  0  0  0  0  0  0  0  0  0  0
   17.0632    0.5564    0.0000 O   0  0  0  0  0  0  0  0  0  0  0  0
   17.0632    7.4846    0.0000 O   0  0  0  0  0  0  0  0  0  0  0  0
   16.0632   -0.4436    0.0000 O   0  0  0  0  0  0  0  0  0  0  0  0
   16.0632    1.5564    0.0000 O   0  0  0  0  0  0  0  0  0  0  0  0
    8.5991   -7.7115    0.0000 O   0  0  0  0  0  0  0  0  0  0  0  0
   12.1972   -2.2115    0.0000 O   0  0  0  0  0  0  0  0  0  0  0  0
   15.6972    7.1186    0.0000 O   0  0  0  0  0  0  0  0  0  0  0  0
   17.4292    6.1186    0.0000 O   0  0  0  0  0  0  0  0  0  0  0  0
    9.5991   -6.7115    0.0000 O   0  0  0  0  0  0  0  0  0  0  0  0
    7.5991   -6.7115    0.0000 O   0  0  0  0  0  0  0  0  0  0  0  0
   13.1972   -1.2115    0.0000 O   0  0  0  0  0  0  0  0  0  0  0  0
   12.1972   -0.2115    0.0000 O   0  0  0  0  0  0  0  0  0  0  0  0
   20.0632    0.5564    0.0000 O   0  0  0  0  0  0  0  0  0  0  0  0
   20.4292    1.9224    0.0000 O   0  0  0  0  0  0  0  0  0  0  0  0
   18.6972    0.9224    0.0000 O   0  0  0  0  0  0  0  0  0  0  0  0
    2.5369   -3.2115    0.0000 O   0  0  0  0  0  0  0  0  0  0  0  0
    2.9030   -4.5776    0.0000 O   0  0  0  0  0  0  0  0  0  0  0  0
    3.9030   -2.8455    0.0000 O   0  0  0  0  0  0  0  0  0  0  0  0
   10.3312    3.2885    0.0000 N   0  0  0  0  0  0  0  0  0  0  0  0
   16.0632    5.7526    0.0000 N   0  0  0  0  0  0  0  0  0  0  0  0
    8.5991   -5.7115    0.0000 N   0  0  0  0  0  0  0  0  0  0  0  0
    9.4651    0.7885    0.0000 C   0  0  1  0  0  0  0  0  0  0  0  0
    9.4651    1.7885    0.0000 C   0  0  1  0  0  0  0  0  0  0  0  0
   10.3312    2.2885    0.0000 C   0  0  2  0  0  0  0  0  0  0  0  0
   11.1972    1.7885    0.0000 C   0  0  3  0  0  0  0  0  0  0  0  0
   10.3312    0.2885    0.0000 C   0  0  1  0  0  0  0  0  0  0  0  0
   13.0632    2.2885    0.0000 C   0  0  1  0  0  0  0  0  0  0  0  0
   13.5632    1.4224    0.0000 C   0  0  1  0  0  0  0  0  0  0  0  0
   14.5632    1.4224    0.0000 C   0  0  2  0  0  0  0  0  0  0  0  0
    8.5991   -0.7115    0.0000 C   0  0  2  0  0  0  0  0  0  0  0  0
   15.0632    2.2885    0.0000 C   0  0  1  0  0  0  0  0  0  0  0  0
   13.5632    3.1545    0.0000 C   0  0  2  0  0  0  0  0  0  0  0  0
    8.5991   -2.7115    0.0000 C   0  0  1  0  0  0  0  0  0  0  0  0
    7.7331   -1.2115    0.0000 C   0  0  1  0  0  0  0  0  0  0  0  0
    7.7331   -2.2115    0.0000 C   0  0  1  0  0  0  0  0  0  0  0  0
   16.5632    3.1545    0.0000 C   0  0  1  0  0  0  0  0  0  0  0  0
    9.4651   -2.2115    0.0000 C   0  0  1  0  0  0  0  0  0  0  0  0
   16.0632    4.0205    0.0000 C   0  0  1  0  0  0  0  0  0  0  0  0
   10.3312   -0.7115    0.0000 C   0  0  0  0  0  0  0  0  0  0  0  0
   17.5632    3.1545    0.0000 C   0  0  1  0  0  0  0  0  0  0  0  0
   16.5632    4.8865    0.0000 C   0  0  2  0  0  0  0  0  0  0  0  0
    7.7331   -4.2115    0.0000 C   0  0  1  0  0  0  0  0  0  0  0  0
    7.7331   -5.2115    0.0000 C   0  0  1  0  0  0  0  0  0  0  0  0
    6.8671   -5.7115    0.0000 C   0  0  2  0  0  0  0  0  0  0  0  0
   17.5632    4.8865    0.0000 C   0  0  2  0  0  0  0  0  0  0  0  0
    6.0010   -5.2115    0.0000 C   0  0  1  0  0  0  0  0  0  0  0  0
    6.0010   -4.2115    0.0000 C   0  0  1  0  0  0  0  0  0  0  0  0
   13.0632    4.0205    0.0000 C   0  0  0  0  0  0  0  0  0  0  0  0
   18.0632    2.2885    0.0000 C   0  0  0  0  0  0  0  0  0  0  0  0
   10.3312   -2.7115    0.0000 C   0  0  0  0  0  0  0  0  0  0  0  0
    5.1350   -3.7115    0.0000 C   0  0  0  0  0  0  0  0  0  0  0  0
   19.0632    5.7526    0.0000 C   0  0  0  0  0  0  0  0  0  0  0  0
    9.4651    0.1685    0.0000 H   0  0  0  0  0  0  0  0  0  0  0  0
    9.4651    2.4085    0.0000 H   0  0  0  0  0  0  0  0  0  0  0  0
   10.8681    2.5985    0.0000 H   0  0  0  0  0  0  0  0  0  0  0  0
   11.1972    2.6385    0.0000 H   0  0  0  0  0  0  0  0  0  0  0  0
   10.8681   -0.0215    0.0000 H   0  0  0  0  0  0  0  0  0  0  0  0
   12.7532    2.8254    0.0000 H   0  0  0  0  0  0  0  0  0  0  0  0
   12.9432    1.4224    0.0000 H   0  0  0  0  0  0  0  0  0  0  0  0
   15.1832    1.4224    0.0000 H   0  0  0  0  0  0  0  0  0  0  0  0
    8.0622   -0.4015    0.0000 H   0  0  0  0  0  0  0  0  0  0  0  0
   15.3732    2.8254    0.0000 H   0  0  0  0  0  0  0  0  0  0  0  0
   13.8732    3.6914    0.0000 H   0  0  0  0  0  0  0  0  0  0  0  0
    8.0622   -3.0215    0.0000 H   0  0  0  0  0  0  0  0  0  0  0  0
    7.7331   -0.5915    0.0000 H   0  0  0  0  0  0  0  0  0  0  0  0
    7.7331   -2.8315    0.0000 H   0  0  0  0  0  0  0  0  0  0  0  0
   15.9432    3.1545    0.0000 H   0  0  0  0  0  0  0  0  0  0  0  0
   10.0021   -1.9015    0.0000 H   0  0  0  0  0  0  0  0  0  0  0  0
   15.7532    4.5574    0.0000 H   0  0  0  0  0  0  0  0  0  0  0  0
    9.7206   -0.6039    0.0000 H   0  0  0  0  0  0  0  0  0  0  0  0
   10.1191   -1.2942    0.0000 H   0  0  0  0  0  0  0  0  0  0  0  0
   10.8681    3.5985    0.0000 H   0  0  0  0  0  0  0  0  0  0  0  0
   18.1832    3.1545    0.0000 H   0  0  0  0  0  0  0  0  0  0  0  0
   15.9432    4.8865    0.0000 H   0  0  0  0  0  0  0  0  0  0  0  0
    7.7331   -3.5915    0.0000 H   0  0  0  0  0  0  0  0  0  0  0  0
    7.7331   -5.8315    0.0000 H   0  0  0  0  0  0  0  0  0  0  0  0
    6.3301   -6.0215    0.0000 H   0  0  0  0  0  0  0  0  0  0  0  0
   17.2532    5.4235    0.0000 H   0  0  0  0  0  0  0  0  0  0  0  0
    5.4641   -4.9015    0.0000 H   0  0  0  0  0  0  0  0  0  0  0  0
    6.0010   -3.5915    0.0000 H   0  0  0  0  0  0  0  0  0  0  0  0
   17.4806    2.0764    0.0000 H   0  0  0  0  0  0  0  0  0  0  0  0
   18.1709    1.6779    0.0000 H   0  0  0  0  0  0  0  0  0  0  0  0
   13.3733    0.0195    0.0000 H   0  0  0  0  0  0  0  0  0  0  0  0
   15.4432    5.7526    0.0000 H   0  0  0  0  0  0  0  0  0  0  0  0
    6.3301   -1.0215    0.0000 H   0  0  0  0  0  0  0  0  0  0  0  0
    9.1360   -5.4015    0.0000 H   0  0  0  0  0  0  0  0  0  0  0  0
    6.3301   -2.4015    0.0000 H   0  0  0  0  0  0  0  0  0  0  0  0
    5.5335   -3.2366    0.0000 H   0  0  0  0  0  0  0  0  0  0  0  0
    4.7365   -3.2366    0.0000 H   0  0  0  0  0  0  0  0  0  0  0  0
   14.7532    4.5574    0.0000 H   0  0  0  0  0  0  0  0  0  0  0  0
    6.3301   -7.0215    0.0000 H   0  0  0  0  0  0  0  0  0  0  0  0
    5.1350   -6.3315    0.0000 H   0  0  0  0  0  0  0  0  0  0  0  0
   13.2532    5.4235    0.0000 H   0  0  0  0  0  0  0  0  0  0  0  0
    8.5991    4.9085    0.0000 H   0  0  0  0  0  0  0  0  0  0  0  0
   10.8681   -4.0215    0.0000 H   0  0  0  0  0  0  0  0  0  0  0  0
    6.3301    1.5985    0.0000 H   0  0  0  0  0  0  0  0  0  0  0  0
   19.0632    5.1326    0.0000 H   0  0  0  0  0  0  0  0  0  0  0  0
   19.6832    5.7526    0.0000 H   0  0  0  0  0  0  0  0  0  0  0  0
   19.0632    6.3726    0.0000 H   0  0  0  0  0  0  0  0  0  0  0  0
   17.3732    0.0195    0.0000 H   0  0  0  0  0  0  0  0  0  0  0  0
   16.7532    8.0215    0.0000 H   0  0  0  0  0  0  0  0  0  0  0  0
    9.1360   -8.0215    0.0000 H   0  0  0  0  0  0  0  0  0  0  0  0
   12.7341   -2.5215    0.0000 H   0  0  0  0  0  0  0  0  0  0  0  0
   20.6832    0.5564    0.0000 H   0  0  0  0  0  0  0  0  0  0  0  0
    2.0000   -3.5215    0.0000 H   0  0  0  0  0  0  0  0  0  0  0  0
  1 30  1  0  0  0  0
  1 32  2  0  0  0  0
  1 33  2  0  0  0  0
  1 58  1  0  0  0  0
  2 14  1  0  0  0  0
  2 35  1  0  0  0  0
  2 38  2  0  0  0  0
  2 39  2  0  0  0  0
  3 19  1  0  0  0  0
  3 40  1  0  0  0  0
  3 42  2  0  0  0  0
  3 43  2  0  0  0  0
  4 41  1  0  0  0  0
  4 46  2  0  0  0  0
  4 47  2  0  0  0  0
  4 59  1  0  0  0  0
  5 44  1  0  0  0  0
  5 48  2  0  0  0  0
  5 49  2  0  0  0  0
  5 60  1  0  0  0  0
  6 23  1  0  0  0  0
  6 45  1  0  0  0  0
  6 50  2  0  0  0  0
  6 51  2  0  0  0  0
  7 28  1  0  0  0  0
  7 52  1  0  0  0  0
  7 53  2  0  0  0  0
  7 54  2  0  0  0  0
  8 36  1  0  0  0  0
  8 55  1  0  0  0  0
  8 56  2  0  0  0  0
  8 57  2  0  0  0  0
  9 64  1  0  0  0  0
  9 65  1  0  0  0  0
 10 64  1  0  0  0  0
 66 10  1  6  0  0  0
 61 11  1  1  0  0  0
 69 11  1  6  0  0  0
 12 70  1  0  0  0  0
 12 71  1  0  0  0  0
 70 13  1  1  0  0  0
 75 13  1  1  0  0  0
 62 14  1  6  0  0  0
 15 69  1  0  0  0  0
 15 76  1  0  0  0  0
 72 16  1  1  0  0  0
 81 16  1  6  0  0  0
 17 79  1  0  0  0  0
 17 84  1  0  0  0  0
 18 81  1  0  0  0  0
 18 86  1  0  0  0  0
 68 19  1  6  0  0  0
 67 20  1  1  0  0  0
 20122  1  0  0  0  0
 73 21  1  1  0  0  0
 21124  1  0  0  0  0
 74 22  1  6  0  0  0
 22126  1  0  0  0  0
 23 78  1  0  0  0  0
 77 24  1  6  0  0  0
 24129  1  0  0  0  0
 84 25  1  1  0  0  0
 25 91  1  0  0  0  0
 83 26  1  1  0  0  0
 26130  1  0  0  0  0
 85 27  1  6  0  0  0
 27131  1  0  0  0  0
 28 88  1  0  0  0  0
 29 87  1  0  0  0  0
 29132  1  0  0  0  0
 30133  1  0  0  0  0
 31 87  2  0  0  0  0
 34 89  1  0  0  0  0
 34134  1  0  0  0  0
 35135  1  0  0  0  0
 36 90  1  0  0  0  0
 37 89  2  0  0  0  0
 40139  1  0  0  0  0
 41140  1  0  0  0  0
 44141  1  0  0  0  0
 45142  1  0  0  0  0
 52143  1  0  0  0  0
 55144  1  0  0  0  0
 63 58  1  1  0  0  0
 58111  1  0  0  0  0
 80 59  1  1  0  0  0
 59123  1  0  0  0  0
 82 60  1  6  0  0  0
 60125  1  0  0  0  0
 61 62  1  0  0  0  0
 61 65  1  0  0  0  0
 61 92  1  0  0  0  0
 62 63  1  0  0  0  0
 62 93  1  0  0  0  0
 63 64  1  0  0  0  0
 63 94  1  0  0  0  0
 64 95  1  0  0  0  0
 65 78  1  6  0  0  0
 65 96  1  0  0  0  0
 66 67  1  0  0  0  0
 66 71  1  0  0  0  0
 66 97  1  0  0  0  0
 67 68  1  0  0  0  0
 67 98  1  0  0  0  0
 68 70  1  0  0  0  0
 68 99  1  0  0  0  0
 69 73  1  0  0  0  0
 69100  1  0  0  0  0
 70101  1  0  0  0  0
 71 87  1  6  0  0  0
 71102  1  0  0  0  0
 72 74  1  0  0  0  0
 72 76  1  0  0  0  0
 72103  1  0  0  0  0
 73 74  1  0  0  0  0
 73104  1  0  0  0  0
 74105  1  0  0  0  0
 75 77  1  0  0  0  0
 75 79  1  0  0  0  0
 75106  1  0  0  0  0
 76 89  1  6  0  0  0
 76107  1  0  0  0  0
 77 80  1  0  0  0  0
 77108  1  0  0  0  0
 78109  1  0  0  0  0
 78110  1  0  0  0  0
 79 88  1  6  0  0  0
 79112  1  0  0  0  0
 80 84  1  0  0  0  0
 80113  1  0  0  0  0
 81 82  1  0  0  0  0
 81114  1  0  0  0  0
 82 83  1  0  0  0  0
 82115  1  0  0  0  0
 83 85  1  0  0  0  0
 83116  1  0  0  0  0
 84117  1  0  0  0  0
 85 86  1  0  0  0  0
 85118  1  0  0  0  0
 86 90  1  1  0  0  0
 86119  1  0  0  0  0
 88120  1  0  0  0  0
 88121  1  0  0  0  0
 90127  1  0  0  0  0
 90128  1  0  0  0  0
 91136  1  0  0  0  0
 91137  1  0  0  0  0
 91138  1  0  0  0  0
M  END
> <PUBCHEM_COMPOUND_CID>
163742

> <PUBCHEM_COMPOUND_CANONICALIZED>
1

> <PUBCHEM_CACTVS_COMPLEXITY>
3450

> <PUBCHEM_CACTVS_HBOND_ACCEPTOR>
52

> <PUBCHEM_CACTVS_HBOND_DONOR>
19

> <PUBCHEM_CACTVS_ROTATABLE_BOND>
30

> <PUBCHEM_CACTVS_SUBSKEYS>
AAADcfB7PgB4AAAAAAAAAAAAAAAAAAAAAAAkSJEiQAAAAAAAAAAAHgAQSAAACDzxgAcCCABABoAIAACQCDIAAAAAAAAAAIFAAAATEBYAgAQjQAAHMAAHAAH6fA1AAAAAAAAAAAAAAAAAAAAAAAAAAAAAAA==

> <PUBCHEM_IUPAC_OPENEYE_NAME>
(2S,3S,4R,5R,6R)-6-[(2R,3R,4R,5R)-6-[(2R,3S,4S,5R,6R)-2-carboxy-4-hydroxy-6-[(2R,3S,4R,5R,6S)-4-hydroxy-6-methoxy-5-(sulfoamino)-2-(sulfooxymethyl)tetrahydropyran-3-yl]oxy-5-sulfooxy-tetrahydropyran-3-yl]oxy-5-(sulfoamino)-4-sulfooxy-2-(sulfooxymethyl)tetrahydropyran-3-yl]oxy-3-[(2R,3R,4R,5S,6R)-4,5-dihydroxy-3-(sulfoamino)-6-(sulfooxymethyl)tetrahydropyran-2-yl]oxy-4,5-dihydroxy-tetrahydropyran-2-carboxylic acid

> <PUBCHEM_IUPAC_CAS_NAME>
(2S,3S,4R,5R,6R)-6-[[(2R,3R,4R,5R)-6-[[(2R,3S,4S,5R,6R)-2-carboxy-4-hydroxy-6-[[(2R,3S,4R,5R,6S)-4-hydroxy-6-methoxy-5-(sulfoamino)-2-(sulfooxymethyl)-3-oxanyl]oxy]-5-sulfooxy-3-oxanyl]oxy]-5-(sulfoamino)-4-sulfooxy-2-(sulfooxymethyl)-3-oxanyl]oxy]-3-[[(2R,3R,4R,5S,6R)-4,5-dihydroxy-3-(sulfoamino)-6-(sulfooxymethyl)-2-oxanyl]oxy]-4,5-dihydroxy-2-oxanecarboxylic acid

> <PUBCHEM_IUPAC_NAME>
(2S,3S,4R,5R,6R)-6-[(2R,3R,4R,5R)-6-[(2R,3S,4S,5R,6R)-2-carboxy-4-hydroxy-6-[(2R,3S,4R,5R,6S)-4-hydroxy-6-methoxy-5-(sulfoamino)-2-(sulfooxymethyl)oxan-3-yl]oxy-5-sulfooxyoxan-3-yl]oxy-5-(sulfoamino)-4-sulfooxy-2-(sulfooxymethyl)oxan-3-yl]oxy-3-[(2R,3R,4R,5S,6R)-4,5-dihydroxy-3-(sulfoamino)-6-(sulfooxymethyl)oxan-2-yl]oxy-4,5-dihydroxyoxane-2-carboxylic acid

> <PUBCHEM_IUPAC_SYSTEMATIC_NAME>
(2S,3S,4R,5R,6R)-3-[(2R,3R,4R,5S,6R)-4,5-bis(oxidanyl)-3-(sulfoamino)-6-(sulfooxymethyl)oxan-2-yl]oxy-6-[(2R,3R,4R,5R)-6-[(2R,3S,4S,5R,6R)-2-carboxy-6-[(2R,3S,4R,5R,6S)-6-methoxy-4-oxidanyl-5-(sulfoamino)-2-(sulfooxymethyl)oxan-3-yl]oxy-4-oxidanyl-5-sulfooxy-oxan-3-yl]oxy-5-(sulfoamino)-4-sulfooxy-2-(sulfooxymethyl)oxan-3-yl]oxy-4,5-bis(oxidanyl)oxane-2-carboxylic acid

> <PUBCHEM_IUPAC_TRADITIONAL_NAME>
(2S,3S,4R,5R,6R)-6-[(2R,3R,4R,5R)-6-[(2R,3S,4S,5R,6R)-2-carboxy-4-hydroxy-6-[(2R,3S,4R,5R,6S)-4-hydroxy-6-methoxy-5-(sulfoamino)-2-(sulfoxymethyl)tetrahydropyran-3-yl]oxy-5-sulfoxy-tetrahydropyran-3-yl]oxy-5-(sulfoamino)-4-sulfoxy-2-(sulfoxymethyl)tetrahydropyran-3-yl]oxy-3-[(2R,3R,4R,5S,6R)-4,5-dihydroxy-3-(sulfoamino)-6-(sulfoxymethyl)tetrahydropyran-2-yl]oxy-4,5-dihydroxy-tetrahydropyran-2-carboxylic acid

> <PUBCHEM_IUPAC_INCHI>
InChI=1S/C31H53N3O49S8/c1-69-27-9(33-85(48,49)50)13(37)17(6(74-27)3-71-88(57,58)59)76-31-22(83-91(66,67)68)16(40)21(24(81-31)26(43)44)79-29-10(34-86(51,52)53)19(82-90(63,64)65)18(7(75-29)4-72-89(60,61)62)77-30-15(39)14(38)20(23(80-30)25(41)42)78-28-8(32-84(45,46)47)12(36)11(35)5(73-28)2-70-87(54,55)56/h5-24,27-40H,2-4H2,1H3,(H,41,42)(H,43,44)(H,45,46,47)(H,48,49,50)(H,51,52,53)(H,54,55,56)(H,57,58,59)(H,60,61,62)(H,63,64,65)(H,66,67,68)/t5-,6-,7-,8-,9-,10-,11-,12-,13-,14-,15-,16+,17-,18-,19-,20+,21+,22-,23+,24-,27+,28-,29?,30-,31-/m1/s1

> <PUBCHEM_IUPAC_INCHIKEY>
KANJSNBRCNMZMV-HFBWGYJZSA-N

> <PUBCHEM_XLOGP3_AA>
-14.7

> <PUBCHEM_EXACT_MASS>
1506.951333

> <PUBCHEM_MOLECULAR_FORMULA>
C31H53N3O49S8

> <PUBCHEM_MOLECULAR_WEIGHT>
1508.26322

> <PUBCHEM_OPENEYE_CAN_SMILES>
COC1C(C(C(C(O1)COS(=O)(=O)O)OC2C(C(C(C(O2)C(=O)O)OC3C(C(C(C(O3)COS(=O)(=O)O)OC4C(C(C(C(O4)C(=O)O)OC5C(C(C(C(O5)COS(=O)(=O)O)O)O)NS(=O)(=O)O)O)O)OS(=O)(=O)O)NS(=O)(=O)O)O)OS(=O)(=O)O)O)NS(=O)(=O)O

> <PUBCHEM_OPENEYE_ISO_SMILES>
CO[C@@H]1[C@@H]([C@H]([C@@H]([C@H](O1)COS(=O)(=O)O)O[C@H]2[C@@H]([C@H]([C@@H]([C@@H](O2)C(=O)O)OC3[C@@H]([C@H]([C@@H]([C@H](O3)COS(=O)(=O)O)O[C@H]4[C@@H]([C@H]([C@@H]([C@H](O4)C(=O)O)O[C@@H]5[C@@H]([C@H]([C@@H]([C@H](O5)COS(=O)(=O)O)O)O)NS(=O)(=O)O)O)O)OS(=O)(=O)O)NS(=O)(=O)O)O)OS(=O)(=O)O)O)NS(=O)(=O)O

> <PUBCHEM_CACTVS_TPSA>
873

> <PUBCHEM_MONOISOTOPIC_WEIGHT>
1506.951333

> <PUBCHEM_TOTAL_CHARGE>
0

> <PUBCHEM_HEAVY_ATOM_COUNT>
91

> <PUBCHEM_ATOM_DEF_STEREO_COUNT>
24

> <PUBCHEM_ATOM_UDEF_STEREO_COUNT>
1

> <PUBCHEM_BOND_DEF_STEREO_COUNT>
0

> <PUBCHEM_BOND_UDEF_STEREO_COUNT>
0

> <PUBCHEM_ISOTOPIC_ATOM_COUNT>
0

> <PUBCHEM_COMPONENT_COUNT>
1

> <PUBCHEM_CACTVS_TAUTO_COUNT>
1

> <PUBCHEM_COORDINATE_TYPE>
1
5
255

> <PUBCHEM_BONDANNOTATIONS>
66  10  6
61  11  5
69  11  6
70  13  5
75  13  5
62  14  6
72  16  5
81  16  6
68  19  6
67  20  5
73  21  5
74  22  6
77  24  6
84  25  5
83  26  5
85  27  6
63  58  5
80  59  5
82  60  6
64  95  3
65  78  6
71  87  6
76  89  6
79  88  6
86  90  5

$$$$
