166548
  -OEChem-12171208232D

155161  0     1  0  0  0  0  0999 V2000
    2.4141   -5.5589    0.0000 O   0  0  0  0  0  0  0  0  0  0  0  0
    6.1944   -4.1550    0.0000 O   0  0  0  0  0  0  0  0  0  0  0  0
    2.9048   -3.8733    0.0000 O   0  0  0  0  0  0  0  0  0  0  0  0
   12.2570   -1.0238    0.0000 O   0  0  0  0  0  0  0  0  0  0  0  0
    5.8889   -7.3653    0.0000 O   0  0  0  0  0  0  0  0  0  0  0  0
    5.6310   -2.6876    0.0000 O   0  0  0  0  0  0  0  0  0  0  0  0
    5.7155   -5.6459    0.0000 O   0  0  0  0  0  0  0  0  0  0  0  0
   11.3562   -4.7409    0.0000 O   0  0  0  0  0  0  0  0  0  0  0  0
    8.6487   -1.8519    0.0000 O   0  0  0  0  0  0  0  0  0  0  0  0
   11.1111   -6.0463    0.0000 O   0  0  0  0  0  0  0  0  0  0  0  0
    8.3416   -6.8483    0.0000 O   0  0  0  0  0  0  0  0  0  0  0  0
   11.1330   -3.8348    0.0000 O   0  0  0  0  0  0  0  0  0  0  0  0
    8.9204   -7.5299    0.0000 O   0  0  0  0  0  0  0  0  0  0  0  0
    8.2521   -2.7179    0.0000 O   0  0  0  0  0  0  0  0  0  0  0  0
    5.2148   -3.0974    0.0000 O   0  0  0  0  0  0  0  0  0  0  0  0
   12.7148  -10.0995    0.0000 O   0  0  0  0  0  0  0  0  0  0  0  0
    5.1623    7.4381    0.0000 O   0  0  0  0  0  0  0  0  0  0  0  0
    4.9956   -5.5980    0.0000 N   0  0  0  0  0  0  0  0  0  0  0  0
   10.1146   -2.4591    0.0000 N   0  0  0  0  0  0  0  0  0  0  0  0
    4.5779   -3.4250    0.0000 N   0  0  0  0  0  0  0  0  0  0  0  0
    7.6061   -5.3568    0.0000 N   0  0  0  0  0  0  0  0  0  0  0  0
    9.6969   -4.6321    0.0000 N   0  0  0  0  0  0  0  0  0  0  0  0
    8.7004   -4.3909    0.0000 N   0  0  0  0  0  0  0  0  0  0  0  0
    6.9402   -2.9464    0.0000 N   0  0  0  0  0  0  0  0  0  0  0  0
    3.7977   -6.6729    0.0000 C   0  0  2  0  0  0  0  0  0  0  0  0
    3.3926   -5.7651    0.0000 C   0  0  1  0  0  0  0  0  0  0  0  0
    4.1296   -5.0980    0.0000 C   0  0  1  0  0  0  0  0  0  0  0  0
    4.7864   -6.5698    0.0000 C   0  0  0  0  0  0  0  0  0  0  0  0
    3.2977   -7.5389    0.0000 C   0  0  0  0  0  0  0  0  0  0  0  0
    5.8616   -5.0980    0.0000 C   0  0  0  0  0  0  0  0  0  0  0  0
    3.8708   -4.1321    0.0000 C   0  0  0  0  0  0  0  0  0  0  0  0
    6.7401   -5.8568    0.0000 C   0  0  2  0  0  0  0  0  0  0  0  0
   10.8217   -3.1662    0.0000 C   0  0  1  0  0  0  0  0  0  0  0  0
   11.7063   -2.7126    0.0000 C   0  0  0  0  0  0  0  0  0  0  0  0
   11.5499   -1.7309    0.0000 C   0  0  2  0  0  0  0  0  0  0  0  0
   10.5682   -1.5745    0.0000 C   0  0  0  0  0  0  0  0  0  0  0  0
    6.7499   -6.8568    0.0000 C   0  0  1  0  0  0  0  0  0  0  0  0
    5.5438   -3.6838    0.0000 C   0  0  1  0  0  0  0  0  0  0  0  0
    9.4380   -5.5980    0.0000 C   0  0  2  0  0  0  0  0  0  0  0  0
   10.5629   -4.1321    0.0000 C   0  0  0  0  0  0  0  0  0  0  0  0
    9.1487   -2.7179    0.0000 C   0  0  0  0  0  0  0  0  0  0  0  0
    5.8026   -4.6497    0.0000 C   0  0  1  0  0  0  0  0  0  0  0  0
    8.4721   -5.8568    0.0000 C   0  0  0  0  0  0  0  0  0  0  0  0
    9.4075   -3.6838    0.0000 C   0  0  2  0  0  0  0  0  0  0  0  0
   10.1452   -6.3051    0.0000 C   0  0  1  0  0  0  0  0  0  0  0  0
    6.7685   -4.9086    0.0000 C   0  0  0  0  0  0  0  0  0  0  0  0
    7.6208   -7.3482    0.0000 C   0  0  0  0  0  0  0  0  0  0  0  0
    7.0274   -3.9426    0.0000 C   0  0  1  0  0  0  0  0  0  0  0  0
   10.2267   -4.2574    0.0000 C   0  0  1  0  0  0  0  0  0  0  0  0
    9.8863   -7.2711    0.0000 C   0  0  2  0  0  0  0  0  0  0  0  0
    7.9933   -3.6838    0.0000 C   0  0  0  0  0  0  0  0  0  0  0  0
   10.1395   -5.2536    0.0000 C   0  0  0  0  0  0  0  0  0  0  0  0
   10.5934   -7.9782    0.0000 C   0  0  0  0  0  0  0  0  0  0  0  0
    6.0339   -2.5238    0.0000 C   0  0  0  0  0  0  0  0  0  0  0  0
   10.3346   -8.9441    0.0000 C   0  0  0  0  0  0  0  0  0  0  0  0
   11.5594   -7.7194    0.0000 C   0  0  0  0  0  0  0  0  0  0  0  0
    5.9467   -1.5276    0.0000 C   0  0  0  0  0  0  0  0  0  0  0  0
   11.0417   -9.6512    0.0000 C   0  0  0  0  0  0  0  0  0  0  0  0
   12.2665   -8.4265    0.0000 C   0  0  0  0  0  0  0  0  0  0  0  0
   12.0077   -9.3924    0.0000 C   0  0  0  0  0  0  0  0  0  0  0  0
    5.0404   -1.1050    0.0000 C   0  0  0  0  0  0  0  0  0  0  0  0
    6.7659   -0.9541    0.0000 C   0  0  0  0  0  0  0  0  0  0  0  0
    4.9533   -0.1088    0.0000 C   0  0  0  0  0  0  0  0  0  0  0  0
    6.6787    0.0421    0.0000 C   0  0  0  0  0  0  0  0  0  0  0  0
    5.7724    0.4648    0.0000 C   0  0  0  0  0  0  0  0  0  0  0  0
    5.6853    1.4610    0.0000 C   0  0  0  0  0  0  0  0  0  0  0  0
    4.7790    1.8836    0.0000 C   0  0  0  0  0  0  0  0  0  0  0  0
    6.5044    2.0345    0.0000 C   0  0  0  0  0  0  0  0  0  0  0  0
    4.6918    2.8798    0.0000 C   0  0  0  0  0  0  0  0  0  0  0  0
    6.4173    3.0307    0.0000 C   0  0  0  0  0  0  0  0  0  0  0  0
    5.5110    3.4533    0.0000 C   0  0  0  0  0  0  0  0  0  0  0  0
    5.4238    4.4495    0.0000 C   0  0  0  0  0  0  0  0  0  0  0  0
    4.5175    4.8722    0.0000 C   0  0  0  0  0  0  0  0  0  0  0  0
    6.2430    5.0231    0.0000 C   0  0  0  0  0  0  0  0  0  0  0  0
    4.4304    5.8684    0.0000 C   0  0  0  0  0  0  0  0  0  0  0  0
    6.1558    6.0193    0.0000 C   0  0  0  0  0  0  0  0  0  0  0  0
    5.2495    6.4419    0.0000 C   0  0  0  0  0  0  0  0  0  0  0  0
    4.1689    8.8569    0.0000 C   0  0  0  0  0  0  0  0  0  0  0  0
    4.2560    7.8607    0.0000 C   0  0  0  0  0  0  0  0  0  0  0  0
    3.2626    9.2796    0.0000 C   0  0  0  0  0  0  0  0  0  0  0  0
    3.1754   10.2757    0.0000 C   0  0  0  0  0  0  0  0  0  0  0  0
    2.2691   10.6984    0.0000 C   0  0  0  0  0  0  0  0  0  0  0  0
    3.1785   -6.6407    0.0000 H   0  0  0  0  0  0  0  0  0  0  0  0
    3.2308   -5.1666    0.0000 H   0  0  0  0  0  0  0  0  0  0  0  0
    3.3143   -4.8577    0.0000 H   0  0  0  0  0  0  0  0  0  0  0  0
    4.7855   -7.1898    0.0000 H   0  0  0  0  0  0  0  0  0  0  0  0
    5.4029   -6.6359    0.0000 H   0  0  0  0  0  0  0  0  0  0  0  0
    2.7607   -7.2289    0.0000 H   0  0  0  0  0  0  0  0  0  0  0  0
    2.9877   -8.0759    0.0000 H   0  0  0  0  0  0  0  0  0  0  0  0
    3.8346   -7.8489    0.0000 H   0  0  0  0  0  0  0  0  0  0  0  0
    7.4783   -6.2782    0.0000 H   0  0  0  0  0  0  0  0  0  0  0  0
   11.4830   -3.7002    0.0000 H   0  0  0  0  0  0  0  0  0  0  0  0
    2.0000   -6.0204    0.0000 H   0  0  0  0  0  0  0  0  0  0  0  0
   11.9296   -3.2910    0.0000 H   0  0  0  0  0  0  0  0  0  0  0  0
   12.3049   -2.5512    0.0000 H   0  0  0  0  0  0  0  0  0  0  0  0
   12.1397   -1.9222    0.0000 H   0  0  0  0  0  0  0  0  0  0  0  0
   10.7295   -0.9759    0.0000 H   0  0  0  0  0  0  0  0  0  0  0  0
    9.9898   -1.3512    0.0000 H   0  0  0  0  0  0  0  0  0  0  0  0
    4.4174   -2.8261    0.0000 H   0  0  0  0  0  0  0  0  0  0  0  0
    6.2100   -6.5521    0.0000 H   0  0  0  0  0  0  0  0  0  0  0  0
    7.6061   -4.7368    0.0000 H   0  0  0  0  0  0  0  0  0  0  0  0
    6.1614   -3.6298    0.0000 H   0  0  0  0  0  0  0  0  0  0  0  0
   10.2591   -5.3780    0.0000 H   0  0  0  0  0  0  0  0  0  0  0  0
    5.1850   -4.7038    0.0000 H   0  0  0  0  0  0  0  0  0  0  0  0
    9.4816   -4.5306    0.0000 H   0  0  0  0  0  0  0  0  0  0  0  0
    9.2780   -4.1750    0.0000 H   0  0  0  0  0  0  0  0  0  0  0  0
   10.5836   -6.7436    0.0000 H   0  0  0  0  0  0  0  0  0  0  0  0
    6.6081   -5.5074    0.0000 H   0  0  0  0  0  0  0  0  0  0  0  0
    7.3674   -5.0690    0.0000 H   0  0  0  0  0  0  0  0  0  0  0  0
    7.3162   -7.8882    0.0000 H   0  0  0  0  0  0  0  0  0  0  0  0
    8.1608   -7.6529    0.0000 H   0  0  0  0  0  0  0  0  0  0  0  0
    7.9255   -6.8083    0.0000 H   0  0  0  0  0  0  0  0  0  0  0  0
    6.4097   -3.8886    0.0000 H   0  0  0  0  0  0  0  0  0  0  0  0
   10.7345   -4.6130    0.0000 H   0  0  0  0  0  0  0  0  0  0  0  0
   12.0966   -0.4249    0.0000 H   0  0  0  0  0  0  0  0  0  0  0  0
    8.7004   -5.0109    0.0000 H   0  0  0  0  0  0  0  0  0  0  0  0
    9.4479   -6.8327    0.0000 H   0  0  0  0  0  0  0  0  0  0  0  0
    5.8950   -7.9853    0.0000 H   0  0  0  0  0  0  0  0  0  0  0  0
    5.1231   -2.3320    0.0000 H   0  0  0  0  0  0  0  0  0  0  0  0
    5.9775   -6.2079    0.0000 H   0  0  0  0  0  0  0  0  0  0  0  0
    9.5219   -5.1996    0.0000 H   0  0  0  0  0  0  0  0  0  0  0  0
   10.0855   -5.8712    0.0000 H   0  0  0  0  0  0  0  0  0  0  0  0
   10.7571   -5.3076    0.0000 H   0  0  0  0  0  0  0  0  0  0  0  0
    7.4481   -2.5908    0.0000 H   0  0  0  0  0  0  0  0  0  0  0  0
   11.5495   -6.4847    0.0000 H   0  0  0  0  0  0  0  0  0  0  0  0
   11.6408   -4.1904    0.0000 H   0  0  0  0  0  0  0  0  0  0  0  0
    8.7600   -8.1288    0.0000 H   0  0  0  0  0  0  0  0  0  0  0  0
    9.7358   -9.1046    0.0000 H   0  0  0  0  0  0  0  0  0  0  0  0
   11.7198   -7.1205    0.0000 H   0  0  0  0  0  0  0  0  0  0  0  0
   10.8813  -10.2501    0.0000 H   0  0  0  0  0  0  0  0  0  0  0  0
   12.8654   -8.2660    0.0000 H   0  0  0  0  0  0  0  0  0  0  0  0
    4.5326   -1.4606    0.0000 H   0  0  0  0  0  0  0  0  0  0  0  0
    7.3278   -1.2161    0.0000 H   0  0  0  0  0  0  0  0  0  0  0  0
    4.3914    0.1532    0.0000 H   0  0  0  0  0  0  0  0  0  0  0  0
    7.1866    0.3978    0.0000 H   0  0  0  0  0  0  0  0  0  0  0  0
   12.5543  -10.6984    0.0000 H   0  0  0  0  0  0  0  0  0  0  0  0
    4.2711    1.5280    0.0000 H   0  0  0  0  0  0  0  0  0  0  0  0
    7.0663    1.7725    0.0000 H   0  0  0  0  0  0  0  0  0  0  0  0
    4.1299    3.1418    0.0000 H   0  0  0  0  0  0  0  0  0  0  0  0
    6.9252    3.3863    0.0000 H   0  0  0  0  0  0  0  0  0  0  0  0
    4.0096    4.5165    0.0000 H   0  0  0  0  0  0  0  0  0  0  0  0
    6.8049    4.7611    0.0000 H   0  0  0  0  0  0  0  0  0  0  0  0
    3.8684    6.1304    0.0000 H   0  0  0  0  0  0  0  0  0  0  0  0
    6.6637    6.3749    0.0000 H   0  0  0  0  0  0  0  0  0  0  0  0
    4.7865    8.8029    0.0000 H   0  0  0  0  0  0  0  0  0  0  0  0
    4.3294    9.4558    0.0000 H   0  0  0  0  0  0  0  0  0  0  0  0
    3.6384    7.9148    0.0000 H   0  0  0  0  0  0  0  0  0  0  0  0
    4.0956    7.2619    0.0000 H   0  0  0  0  0  0  0  0  0  0  0  0
    2.6449    9.3336    0.0000 H   0  0  0  0  0  0  0  0  0  0  0  0
    3.1021    8.6807    0.0000 H   0  0  0  0  0  0  0  0  0  0  0  0
    3.7931   10.2217    0.0000 H   0  0  0  0  0  0  0  0  0  0  0  0
    3.3359   10.8746    0.0000 H   0  0  0  0  0  0  0  0  0  0  0  0
    2.5311   11.2603    0.0000 H   0  0  0  0  0  0  0  0  0  0  0  0
    1.7072   10.9604    0.0000 H   0  0  0  0  0  0  0  0  0  0  0  0
    2.0071   10.1365    0.0000 H   0  0  0  0  0  0  0  0  0  0  0  0
 26  1  1  6  0  0  0
  1 93  1  0  0  0  0
  2 30  2  0  0  0  0
  3 31  2  0  0  0  0
 35  4  1  6  0  0  0
  4115  1  0  0  0  0
 37  5  1  1  0  0  0
  5118  1  0  0  0  0
 38  6  1  6  0  0  0
  6119  1  0  0  0  0
 42  7  1  1  0  0  0
  7120  1  0  0  0  0
  8 40  2  0  0  0  0
  9 41  2  0  0  0  0
 45 10  1  6  0  0  0
 10125  1  0  0  0  0
 11 43  2  0  0  0  0
 49 12  1  6  0  0  0
 12126  1  0  0  0  0
 50 13  1  6  0  0  0
 13127  1  0  0  0  0
 14 51  2  0  0  0  0
 15 54  2  0  0  0  0
 16 60  1  0  0  0  0
 16136  1  0  0  0  0
 17 77  1  0  0  0  0
 17 79  1  0  0  0  0
 18 27  1  0  0  0  0
 18 28  1  0  0  0  0
 18 30  1  0  0  0  0
 19 33  1  0  0  0  0
 19 36  1  0  0  0  0
 19 41  1  0  0  0  0
 20 31  1  0  0  0  0
 20 38  1  0  0  0  0
 20 99  1  0  0  0  0
 21 32  1  0  0  0  0
 21 43  1  0  0  0  0
 21101  1  0  0  0  0
 22 39  1  0  0  0  0
 22 40  1  0  0  0  0
 22106  1  0  0  0  0
 23 44  1  0  0  0  0
 23 51  1  0  0  0  0
 23116  1  0  0  0  0
 48 24  1  6  0  0  0
 24 54  1  0  0  0  0
 24124  1  0  0  0  0
 25 26  1  0  0  0  0
 25 28  1  0  0  0  0
 25 29  1  6  0  0  0
 25 83  1  0  0  0  0
 26 27  1  0  0  0  0
 26 84  1  0  0  0  0
 27 31  1  0  0  0  0
 27 85  1  6  0  0  0
 28 86  1  0  0  0  0
 28 87  1  0  0  0  0
 29 88  1  0  0  0  0
 29 89  1  0  0  0  0
 29 90  1  0  0  0  0
 30 32  1  0  0  0  0
 32 37  1  0  0  0  0
 32 91  1  6  0  0  0
 33 34  1  0  0  0  0
 33 40  1  0  0  0  0
 33 92  1  6  0  0  0
 34 35  1  0  0  0  0
 34 94  1  0  0  0  0
 34 95  1  0  0  0  0
 35 36  1  0  0  0  0
 35 96  1  0  0  0  0
 36 97  1  0  0  0  0
 36 98  1  0  0  0  0
 37 47  1  0  0  0  0
 37100  1  0  0  0  0
 38 42  1  0  0  0  0
 38102  1  0  0  0  0
 39 43  1  0  0  0  0
 39 45  1  0  0  0  0
 39103  1  6  0  0  0
 41 44  1  0  0  0  0
 42 46  1  0  0  0  0
 42104  1  0  0  0  0
 44 49  1  0  0  0  0
 44105  1  1  0  0  0
 45 50  1  0  0  0  0
 45107  1  0  0  0  0
 46 48  1  0  0  0  0
 46108  1  0  0  0  0
 46109  1  0  0  0  0
 47110  1  0  0  0  0
 47111  1  0  0  0  0
 47112  1  0  0  0  0
 48 51  1  0  0  0  0
 48113  1  0  0  0  0
 49 52  1  0  0  0  0
 49114  1  0  0  0  0
 50 53  1  0  0  0  0
 50117  1  0  0  0  0
 52121  1  0  0  0  0
 52122  1  0  0  0  0
 52123  1  0  0  0  0
 53 55  2  0  0  0  0
 53 56  1  0  0  0  0
 54 57  1  0  0  0  0
 55 58  1  0  0  0  0
 55128  1  0  0  0  0
 56 59  2  0  0  0  0
 56129  1  0  0  0  0
 57 61  2  0  0  0  0
 57 62  1  0  0  0  0
 58 60  2  0  0  0  0
 58130  1  0  0  0  0
 59 60  1  0  0  0  0
 59131  1  0  0  0  0
 61 63  1  0  0  0  0
 61132  1  0  0  0  0
 62 64  2  0  0  0  0
 62133  1  0  0  0  0
 63 65  2  0  0  0  0
 63134  1  0  0  0  0
 64 65  1  0  0  0  0
 64135  1  0  0  0  0
 65 66  1  0  0  0  0
 66 67  2  0  0  0  0
 66 68  1  0  0  0  0
 67 69  1  0  0  0  0
 67137  1  0  0  0  0
 68 70  2  0  0  0  0
 68138  1  0  0  0  0
 69 71  2  0  0  0  0
 69139  1  0  0  0  0
 70 71  1  0  0  0  0
 70140  1  0  0  0  0
 71 72  1  0  0  0  0
 72 73  2  0  0  0  0
 72 74  1  0  0  0  0
 73 75  1  0  0  0  0
 73141  1  0  0  0  0
 74 76  2  0  0  0  0
 74142  1  0  0  0  0
 75 77  2  0  0  0  0
 75143  1  0  0  0  0
 76 77  1  0  0  0  0
 76144  1  0  0  0  0
 78 79  1  0  0  0  0
 78 80  1  0  0  0  0
 78145  1  0  0  0  0
 78146  1  0  0  0  0
 79147  1  0  0  0  0
 79148  1  0  0  0  0
 80 81  1  0  0  0  0
 80149  1  0  0  0  0
 80150  1  0  0  0  0
 81 82  1  0  0  0  0
 81151  1  0  0  0  0
 81152  1  0  0  0  0
 82153  1  0  0  0  0
 82154  1  0  0  0  0
 82155  1  0  0  0  0
M  END
> <PUBCHEM_COMPOUND_CID>
166548

> <PUBCHEM_COMPOUND_CANONICALIZED>
1

> <PUBCHEM_CACTVS_COMPLEXITY>
2150

> <PUBCHEM_CACTVS_HBOND_ACCEPTOR>
17

> <PUBCHEM_CACTVS_HBOND_DONOR>
14

> <PUBCHEM_CACTVS_ROTATABLE_BOND>
14

> <PUBCHEM_CACTVS_SUBSKEYS>
AAADcfB/vgAAAAAAAAAAAAAAAAAAAWLAAAAwYMGAAAAAAAABVAAAHgAQCAAADTzhmAYyBoPABgCIAiFSEACCCAAkIAAIiIGODMkPdjaGtTuWeSjm9hGZuYe6/faO4AAAAAAAAADAAAAAAAAAAAAAAAAAAA==

> <PUBCHEM_IUPAC_INCHI>
InChI=1S/C58H73N7O17/c1-5-6-7-24-82-40-22-18-35(19-23-40)33-10-8-32(9-11-33)34-12-14-37(15-13-34)51(74)59-41-26-43(70)54(77)63-56(79)47-48(71)29(2)27-65(47)58(81)45(31(4)67)61-55(78)46(50(73)49(72)36-16-20-38(68)21-17-36)62-53(76)42-25-39(69)28-64(42)57(80)44(30(3)66)60-52(41)75/h8-23,29-31,39,41-50,54,66-73,77H,5-7,24-28H2,1-4H3,(H,59,74)(H,60,75)(H,61,78)(H,62,76)(H,63,79)/t29-,30+,31+,39+,41-,42-,43+,44-,45-,46-,47-,48-,49-,50-,54+/m0/s1

> <PUBCHEM_IUPAC_INCHIKEY>
JHVAMHSQVVQIOT-MFAJLEFUSA-N

> <PUBCHEM_XLOGP3_AA>
2.3

> <PUBCHEM_EXACT_MASS>
1139.506294

> <PUBCHEM_MOLECULAR_FORMULA>
C58H73N7O17

> <PUBCHEM_MOLECULAR_WEIGHT>
1140.23692

> <PUBCHEM_OPENEYE_CAN_SMILES>
CCCCCOC1=CC=C(C=C1)C2=CC=C(C=C2)C3=CC=C(C=C3)C(=O)NC4CC(C(NC(=O)C5C(C(CN5C(=O)C(NC(=O)C(NC(=O)C6CC(CN6C(=O)C(NC4=O)C(C)O)O)C(C(C7=CC=C(C=C7)O)O)O)C(C)O)C)O)O)O

> <PUBCHEM_OPENEYE_ISO_SMILES>
CCCCCOC1=CC=C(C=C1)C2=CC=C(C=C2)C3=CC=C(C=C3)C(=O)N[C@H]4C[C@H]([C@H](NC(=O)[C@@H]5[C@H]([C@H](CN5C(=O)[C@@H](NC(=O)[C@@H](NC(=O)[C@@H]6C[C@H](CN6C(=O)[C@@H](NC4=O)[C@@H](C)O)O)[C@@H]([C@H](C7=CC=C(C=C7)O)O)O)[C@@H](C)O)C)O)O)O

> <PUBCHEM_CACTVS_TPSA>
377

> <PUBCHEM_MONOISOTOPIC_WEIGHT>
1139.506294

> <PUBCHEM_TOTAL_CHARGE>
0

> <PUBCHEM_HEAVY_ATOM_COUNT>
82

> <PUBCHEM_ATOM_DEF_STEREO_COUNT>
15

> <PUBCHEM_ATOM_UDEF_STEREO_COUNT>
0

> <PUBCHEM_BOND_DEF_STEREO_COUNT>
0

> <PUBCHEM_BOND_UDEF_STEREO_COUNT>
0

> <PUBCHEM_ISOTOPIC_ATOM_COUNT>
0

> <PUBCHEM_COMPONENT_COUNT>
1

> <PUBCHEM_CACTVS_TAUTO_COUNT>
1001

> <PUBCHEM_COORDINATE_TYPE>
1
5
255

> <PUBCHEM_BONDANNOTATIONS>
26  1  6
45  10  6
49  12  6
50  13  6
48  24  6
25  29  6
27  85  6
32  91  6
33  92  6
39  103  6
35  4  6
44  105  5
37  5  5
53  55  8
53  56  8
55  58  8
56  59  8
57  61  8
57  62  8
58  60  8
59  60  8
38  6  6
61  63  8
62  64  8
63  65  8
64  65  8
66  67  8
66  68  8
67  69  8
68  70  8
69  71  8
42  7  5
70  71  8
72  73  8
72  74  8
73  75  8
74  76  8
75  77  8
76  77  8

$$$$
