170361
  -OEChem-12171208232D

 29 32  0     1  0  0  0  0  0999 V2000
    9.9177    0.0476    0.0000 N   0  0  0  0  0  0  0  0  0  0  0  0
    3.6275   -2.4030    0.0000 N   0  0  0  0  0  0  0  0  0  0  0  0
    2.5497   -0.5364    0.0000 N   0  0  0  0  0  0  0  0  0  0  0  0
    7.4359    0.4629    0.0000 C   0  0  3  0  0  0  0  0  0  0  0  0
    7.6947    1.4288    0.0000 C   0  0  3  0  0  0  0  0  0  0  0  0
    6.9581    2.4114    0.0000 C   0  0  0  0  0  0  0  0  0  0  0  0
    5.7038   -0.5371    0.0000 C   0  0  0  0  0  0  0  0  0  0  0  0
    5.2038    0.3289    0.0000 C   0  0  0  0  0  0  0  0  0  0  0  0
    9.1406   -0.5818    0.0000 C   0  0  0  0  0  0  0  0  0  0  0  0
    9.5594    0.9811    0.0000 C   0  0  0  0  0  0  0  0  0  0  0  0
    5.1970   -1.4471    0.0000 C   0  0  0  0  0  0  0  0  0  0  0  0
    4.1623    0.3450    0.0000 C   0  0  0  0  0  0  0  0  0  0  0  0
    4.1554   -1.4552    0.0000 C   0  0  0  0  0  0  0  0  0  0  0  0
    3.6346   -0.5531    0.0000 C   0  0  0  0  0  0  0  0  0  0  0  0
    2.5425   -2.4114    0.0000 C   0  0  0  0  0  0  0  0  0  0  0  0
    2.0000   -1.4718    0.0000 C   0  0  0  0  0  0  0  0  0  0  0  0
    8.1224    0.9642    0.0000 H   0  0  0  0  0  0  0  0  0  0  0  0
    8.1617    2.1391    0.0000 H   0  0  0  0  0  0  0  0  0  0  0  0
    7.2759    2.9438    0.0000 H   0  0  0  0  0  0  0  0  0  0  0  0
    6.3450    2.5034    0.0000 H   0  0  0  0  0  0  0  0  0  0  0  0
    8.7589   -1.0703    0.0000 H   0  0  0  0  0  0  0  0  0  0  0  0
    9.5828   -1.0163    0.0000 H   0  0  0  0  0  0  0  0  0  0  0  0
   10.1709    1.0835    0.0000 H   0  0  0  0  0  0  0  0  0  0  0  0
    9.5810    1.6007    0.0000 H   0  0  0  0  0  0  0  0  0  0  0  0
   10.5166   -0.1129    0.0000 H   0  0  0  0  0  0  0  0  0  0  0  0
    5.5132   -1.9804    0.0000 H   0  0  0  0  0  0  0  0  0  0  0  0
    3.8586    0.8854    0.0000 H   0  0  0  0  0  0  0  0  0  0  0  0
    2.2346   -2.9495    0.0000 H   0  0  0  0  0  0  0  0  0  0  0  0
    1.3800   -1.4694    0.0000 H   0  0  0  0  0  0  0  0  0  0  0  0
  1  9  1  0  0  0  0
  1 10  1  0  0  0  0
  1 25  1  0  0  0  0
  2 13  2  0  0  0  0
  2 15  1  0  0  0  0
  3 14  2  0  0  0  0
  3 16  1  0  0  0  0
  4  6  1  0  0  0  0
  4  7  1  0  0  0  0
  4  9  1  0  0  0  0
  4 17  1  0  0  0  0
  5  6  1  0  0  0  0
  5  8  1  0  0  0  0
  5 10  1  0  0  0  0
  5 18  1  0  0  0  0
  6 19  1  0  0  0  0
  6 20  1  0  0  0  0
  7  8  1  0  0  0  0
  7 11  2  0  0  0  0
  8 12  2  0  0  0  0
  9 21  1  0  0  0  0
  9 22  1  0  0  0  0
 10 23  1  0  0  0  0
 10 24  1  0  0  0  0
 11 13  1  0  0  0  0
 11 26  1  0  0  0  0
 12 14  1  0  0  0  0
 12 27  1  0  0  0  0
 13 14  1  0  0  0  0
 15 16  2  0  0  0  0
 15 28  1  0  0  0  0
 16 29  1  0  0  0  0
M  END
> <PUBCHEM_COMPOUND_CID>
170361

> <PUBCHEM_COMPOUND_CANONICALIZED>
1

> <PUBCHEM_CACTVS_COMPLEXITY>
254

> <PUBCHEM_CACTVS_HBOND_ACCEPTOR>
3

> <PUBCHEM_CACTVS_HBOND_DONOR>
1

> <PUBCHEM_CACTVS_ROTATABLE_BOND>
0

> <PUBCHEM_CACTVS_SUBSKEYS>
AAADccBzAAAAAAAAAAAAAAAAAAAAAYAAAAA8WIAABYAAAGCx8AAAHAAQAAAADQjBHgQ8wLLIEACgAzRnRACCgCQxEiAI2KA4dJgIYOLAkZGUIAhgkADIyAcQgMAOiAAAQAAQACAQAACAACAAQQAACAAAAA==

> <PUBCHEM_IUPAC_INCHI>
InChI=1S/C13H13N3/c1-2-16-13-5-11-9-3-8(6-14-7-9)10(11)4-12(13)15-1/h1-2,4-5,8-9,14H,3,6-7H2

> <PUBCHEM_IUPAC_INCHIKEY>
JQSHBVHOMNKWFT-UHFFFAOYSA-N

> <PUBCHEM_XLOGP3_AA>
0.8

> <PUBCHEM_EXACT_MASS>
211.110947

> <PUBCHEM_MOLECULAR_FORMULA>
C13H13N3

> <PUBCHEM_MOLECULAR_WEIGHT>
211.26242

> <PUBCHEM_OPENEYE_CAN_SMILES>
C1C2CNCC1C3=CC4=NC=CN=C4C=C23

> <PUBCHEM_OPENEYE_ISO_SMILES>
C1C2CNCC1C3=CC4=NC=CN=C4C=C23

> <PUBCHEM_CACTVS_TPSA>
37.8

> <PUBCHEM_MONOISOTOPIC_WEIGHT>
211.110947

> <PUBCHEM_TOTAL_CHARGE>
0

> <PUBCHEM_HEAVY_ATOM_COUNT>
16

> <PUBCHEM_ATOM_DEF_STEREO_COUNT>
0

> <PUBCHEM_ATOM_UDEF_STEREO_COUNT>
2

> <PUBCHEM_BOND_DEF_STEREO_COUNT>
0

> <PUBCHEM_BOND_UDEF_STEREO_COUNT>
0

> <PUBCHEM_ISOTOPIC_ATOM_COUNT>
0

> <PUBCHEM_COMPONENT_COUNT>
1

> <PUBCHEM_CACTVS_TAUTO_COUNT>
1

> <PUBCHEM_COORDINATE_TYPE>
1
5
255

> <PUBCHEM_BONDANNOTATIONS>
11  13  8
12  14  8
13  14  8
15  16  8
2  13  8
2  15  8
3  14  8
3  16  8
4  17  3
5  18  3
7  11  8
7  8  8
8  12  8

$$$$
