197712
  -OEChem-12171208232D

 50 52  0     1  0  0  0  0  0999 V2000
    4.0981    0.6651    0.0000 O   0  0  0  0  0  0  0  0  0  0  0  0
    6.3301   -0.2010    0.0000 O   0  0  0  0  0  0  0  0  0  0  0  0
    6.3301    1.7990    0.0000 O   0  0  0  0  0  0  0  0  0  0  0  0
    4.5981    1.7990    0.0000 O   0  0  0  0  0  0  0  0  0  0  0  0
    8.0622   -0.2010    0.0000 N   0  0  0  0  0  0  0  0  0  0  0  0
    7.1962    1.2990    0.0000 N   0  0  0  0  0  0  0  0  0  0  0  0
    4.5981   -0.2010    0.0000 C   0  0  0  0  0  0  0  0  0  0  0  0
    5.4641    0.2990    0.0000 C   0  0  3  0  0  0  0  0  0  0  0  0
    3.7320   -0.7010    0.0000 C   0  0  0  0  0  0  0  0  0  0  0  0
    5.0981   -1.0670    0.0000 C   0  0  0  0  0  0  0  0  0  0  0  0
    3.7320   -1.7010    0.0000 C   0  0  0  0  0  0  0  0  0  0  0  0
    6.0981   -1.0670    0.0000 C   0  0  0  0  0  0  0  0  0  0  0  0
    2.8660   -0.2010    0.0000 C   0  0  0  0  0  0  0  0  0  0  0  0
    4.5981   -1.9330    0.0000 C   0  0  0  0  0  0  0  0  0  0  0  0
    5.4641    1.2990    0.0000 C   0  0  0  0  0  0  0  0  0  0  0  0
    3.0981    0.6651    0.0000 C   0  0  0  0  0  0  0  0  0  0  0  0
    2.8660   -2.2010    0.0000 C   0  0  0  0  0  0  0  0  0  0  0  0
    6.5981   -1.9330    0.0000 C   0  0  0  0  0  0  0  0  0  0  0  0
    2.0000   -0.7010    0.0000 C   0  0  0  0  0  0  0  0  0  0  0  0
    5.0981   -2.7990    0.0000 C   0  0  0  0  0  0  0  0  0  0  0  0
    6.0981   -2.7990    0.0000 C   0  0  0  0  0  0  0  0  0  0  0  0
    2.0000   -1.7010    0.0000 C   0  0  0  0  0  0  0  0  0  0  0  0
    7.1962    0.2990    0.0000 C   0  0  0  0  0  0  0  0  0  0  0  0
    8.9282    0.2990    0.0000 C   0  0  0  0  0  0  0  0  0  0  0  0
    8.0622    1.7990    0.0000 C   0  0  0  0  0  0  0  0  0  0  0  0
    8.9282    1.2990    0.0000 C   0  0  0  0  0  0  0  0  0  0  0  0
    9.7942   -0.2010    0.0000 C   0  0  0  0  0  0  0  0  0  0  0  0
    8.0622    2.7990    0.0000 C   0  0  0  0  0  0  0  0  0  0  0  0
    5.4641   -0.3210    0.0000 H   0  0  0  0  0  0  0  0  0  0  0  0
    4.2690   -2.0110    0.0000 H   0  0  0  0  0  0  0  0  0  0  0  0
    6.4081   -0.5301    0.0000 H   0  0  0  0  0  0  0  0  0  0  0  0
    2.8660    0.4190    0.0000 H   0  0  0  0  0  0  0  0  0  0  0  0
    3.9781   -1.9330    0.0000 H   0  0  0  0  0  0  0  0  0  0  0  0
    3.0981    1.2851    0.0000 H   0  0  0  0  0  0  0  0  0  0  0  0
    2.4781    0.6651    0.0000 H   0  0  0  0  0  0  0  0  0  0  0  0
    3.0981    0.0451    0.0000 H   0  0  0  0  0  0  0  0  0  0  0  0
    2.8660   -2.8210    0.0000 H   0  0  0  0  0  0  0  0  0  0  0  0
    7.2181   -1.9330    0.0000 H   0  0  0  0  0  0  0  0  0  0  0  0
    1.4631   -0.3910    0.0000 H   0  0  0  0  0  0  0  0  0  0  0  0
    4.7881   -3.3360    0.0000 H   0  0  0  0  0  0  0  0  0  0  0  0
    1.4631   -2.0110    0.0000 H   0  0  0  0  0  0  0  0  0  0  0  0
    6.4081   -3.3360    0.0000 H   0  0  0  0  0  0  0  0  0  0  0  0
    6.3301    2.4190    0.0000 H   0  0  0  0  0  0  0  0  0  0  0  0
    9.4651    1.6090    0.0000 H   0  0  0  0  0  0  0  0  0  0  0  0
    9.4842   -0.7379    0.0000 H   0  0  0  0  0  0  0  0  0  0  0  0
   10.3312   -0.5110    0.0000 H   0  0  0  0  0  0  0  0  0  0  0  0
   10.1042    0.3360    0.0000 H   0  0  0  0  0  0  0  0  0  0  0  0
    8.6822    2.7990    0.0000 H   0  0  0  0  0  0  0  0  0  0  0  0
    8.0622    3.4190    0.0000 H   0  0  0  0  0  0  0  0  0  0  0  0
    7.4422    2.7990    0.0000 H   0  0  0  0  0  0  0  0  0  0  0  0
  1  7  1  0  0  0  0
  1 16  1  0  0  0  0
  2  8  1  0  0  0  0
  2 23  1  0  0  0  0
  3 15  1  0  0  0  0
  3 43  1  0  0  0  0
  4 15  2  0  0  0  0
  5 23  1  0  0  0  0
  5 24  2  0  0  0  0
  6 23  2  0  0  0  0
  6 25  1  0  0  0  0
  7  8  1  0  0  0  0
  7  9  1  0  0  0  0
  7 10  1  0  0  0  0
  8 15  1  0  0  0  0
  8 29  1  0  0  0  0
  9 11  2  0  0  0  0
  9 13  1  0  0  0  0
 10 12  2  0  0  0  0
 10 14  1  0  0  0  0
 11 17  1  0  0  0  0
 11 30  1  0  0  0  0
 12 18  1  0  0  0  0
 12 31  1  0  0  0  0
 13 19  2  0  0  0  0
 13 32  1  0  0  0  0
 14 20  2  0  0  0  0
 14 33  1  0  0  0  0
 16 34  1  0  0  0  0
 16 35  1  0  0  0  0
 16 36  1  0  0  0  0
 17 22  2  0  0  0  0
 17 37  1  0  0  0  0
 18 21  2  0  0  0  0
 18 38  1  0  0  0  0
 19 22  1  0  0  0  0
 19 39  1  0  0  0  0
 20 21  1  0  0  0  0
 20 40  1  0  0  0  0
 21 42  1  0  0  0  0
 22 41  1  0  0  0  0
 24 26  1  0  0  0  0
 24 27  1  0  0  0  0
 25 26  2  0  0  0  0
 25 28  1  0  0  0  0
 26 44  1  0  0  0  0
 27 45  1  0  0  0  0
 27 46  1  0  0  0  0
 27 47  1  0  0  0  0
 28 48  1  0  0  0  0
 28 49  1  0  0  0  0
 28 50  1  0  0  0  0
M  END
> <PUBCHEM_COMPOUND_CID>
197712

> <PUBCHEM_COMPOUND_CANONICALIZED>
1

> <PUBCHEM_CACTVS_COMPLEXITY>
475

> <PUBCHEM_CACTVS_HBOND_ACCEPTOR>
6

> <PUBCHEM_CACTVS_HBOND_DONOR>
1

> <PUBCHEM_CACTVS_ROTATABLE_BOND>
7

> <PUBCHEM_CACTVS_SUBSKEYS>
AAADceB7OAAAAAAAAAAAAAAAAAAAAAAAAAA8YIAAAAAAAAAB0AAAHgAACAAADFyhngIzmJYIFgCoAyTybAKCgCkhAqAJmCFwbJiJLjbA+dyMdAht4ANL6CeIyOCOgAAAAAAAAAAAAAAAAAAAAAAAAAAAAA==

> <PUBCHEM_IUPAC_OPENEYE_NAME>
2-(4,6-dimethylpyrimidin-2-yl)oxy-3-methoxy-3,3-diphenyl-propanoic acid

> <PUBCHEM_IUPAC_CAS_NAME>
2-[(4,6-dimethyl-2-pyrimidinyl)oxy]-3-methoxy-3,3-diphenylpropanoic acid

> <PUBCHEM_IUPAC_NAME>
2-(4,6-dimethylpyrimidin-2-yl)oxy-3-methoxy-3,3-diphenylpropanoic acid

> <PUBCHEM_IUPAC_SYSTEMATIC_NAME>
2-(4,6-dimethylpyrimidin-2-yl)oxy-3-methoxy-3,3-diphenyl-propanoic acid

> <PUBCHEM_IUPAC_TRADITIONAL_NAME>
2-(4,6-dimethylpyrimidin-2-yl)oxy-3-methoxy-3,3-diphenyl-propionic acid

> <PUBCHEM_IUPAC_INCHI>
InChI=1S/C22H22N2O4/c1-15-14-16(2)24-21(23-15)28-19(20(25)26)22(27-3,17-10-6-4-7-11-17)18-12-8-5-9-13-18/h4-14,19H,1-3H3,(H,25,26)

> <PUBCHEM_IUPAC_INCHIKEY>
OUJTZYPIHDYQMC-UHFFFAOYSA-N

> <PUBCHEM_XLOGP3_AA>
3.8

> <PUBCHEM_EXACT_MASS>
378.157957

> <PUBCHEM_MOLECULAR_FORMULA>
C22H22N2O4

> <PUBCHEM_MOLECULAR_WEIGHT>
378.42108

> <PUBCHEM_OPENEYE_CAN_SMILES>
CC1=CC(=NC(=N1)OC(C(=O)O)C(C2=CC=CC=C2)(C3=CC=CC=C3)OC)C

> <PUBCHEM_OPENEYE_ISO_SMILES>
CC1=CC(=NC(=N1)OC(C(=O)O)C(C2=CC=CC=C2)(C3=CC=CC=C3)OC)C

> <PUBCHEM_CACTVS_TPSA>
81.5

> <PUBCHEM_MONOISOTOPIC_WEIGHT>
378.157957

> <PUBCHEM_TOTAL_CHARGE>
0

> <PUBCHEM_HEAVY_ATOM_COUNT>
28

> <PUBCHEM_ATOM_DEF_STEREO_COUNT>
0

> <PUBCHEM_ATOM_UDEF_STEREO_COUNT>
1

> <PUBCHEM_BOND_DEF_STEREO_COUNT>
0

> <PUBCHEM_BOND_UDEF_STEREO_COUNT>
0

> <PUBCHEM_ISOTOPIC_ATOM_COUNT>
0

> <PUBCHEM_COMPONENT_COUNT>
1

> <PUBCHEM_CACTVS_TAUTO_COUNT>
1

> <PUBCHEM_COORDINATE_TYPE>
1
5
255

> <PUBCHEM_BONDANNOTATIONS>
10  12  8
10  14  8
11  17  8
12  18  8
13  19  8
14  20  8
17  22  8
18  21  8
19  22  8
20  21  8
24  26  8
25  26  8
5  23  8
5  24  8
6  23  8
6  25  8
8  15  3
9  11  8
9  13  8

$$$$
