2019
  -OEChem-12171207532D

176182  0     1  0  0  0  0  0999 V2000
   17.5778    1.4372    0.0000 O   0  0  0  0  0  0  0  0  0  0  0  0
    7.9168    2.9719    0.0000 O   0  0  0  0  0  0  0  0  0  0  0  0
   15.0686    2.0464    0.0000 O   0  0  0  0  0  0  0  0  0  0  0  0
    6.0920    1.1452    0.0000 O   0  0  0  0  0  0  0  0  0  0  0  0
   12.7649    1.1146    0.0000 O   0  0  0  0  0  0  0  0  0  0  0  0
    5.6903   -1.3071    0.0000 O   0  0  0  0  0  0  0  0  0  0  0  0
   15.7537   -0.8418    0.0000 O   0  0  0  0  0  0  0  0  0  0  0  0
    8.9153    0.2289    0.0000 O   0  0  0  0  0  0  0  0  0  0  0  0
   12.7805    5.4441    0.0000 O   0  0  0  0  0  0  0  0  0  0  0  0
    2.0000    0.9570    0.0000 O   0  0  0  0  0  0  0  0  0  0  0  0
   11.2550    1.9633    0.0000 O   0  0  0  0  0  0  0  0  0  0  0  0
    4.1803   -2.1557    0.0000 O   0  0  0  0  0  0  0  0  0  0  0  0
   11.1452   -4.4095    0.0000 O   0  0  0  0  0  0  0  0  0  0  0  0
   12.0219   -0.8849    0.0000 O   0  0  0  0  0  0  0  0  0  0  0  0
    9.4053   -0.6429    0.0000 O   0  0  0  0  0  0  0  0  0  0  0  0
   14.6754   -4.4336    0.0000 O   0  0  0  0  0  0  0  0  0  0  0  0
   16.7890    3.0664    0.0000 N   0  0  0  0  0  0  0  0  0  0  0  0
    6.1151    3.1451    0.0000 N   0  0  0  0  0  0  0  0  0  0  0  0
   14.1853    3.5363    0.0000 N   0  0  0  0  0  0  0  0  0  0  0  0
    4.3600    1.1653    0.0000 N   0  0  0  0  0  0  0  0  0  0  0  0
   15.7337    0.8901    0.0000 N   0  0  0  0  0  0  0  0  0  0  0  0
    7.4254    1.1122    0.0000 N   0  0  0  0  0  0  0  0  0  0  0  0
   12.4749    3.8095    0.0000 N   0  0  0  0  0  0  0  0  0  0  0  0
    3.2375   -0.1538    0.0000 N   0  0  0  0  0  0  0  0  0  0  0  0
   13.7538   -0.8649    0.0000 N   0  0  0  0  0  0  0  0  0  0  0  0
    7.8954   -1.4915    0.0000 N   0  0  0  0  0  0  0  0  0  0  0  0
   11.1452   -2.4095    0.0000 N   0  0  0  0  0  0  0  0  0  0  0  0
   14.6754   -2.3853    0.0000 N   0  0  0  0  0  0  0  0  0  0  0  0
   15.9173    3.5564    0.0000 C   0  0  3  0  0  0  0  0  0  0  0  0
    5.2434    2.6551    0.0000 C   0  0  3  0  0  0  0  0  0  0  0  0
   16.1152    4.5305    0.0000 C   0  0  0  0  0  0  0  0  0  0  0  0
    4.5141    3.3307    0.0000 C   0  0  0  0  0  0  0  0  0  0  0  0
   17.1027    4.6450    0.0000 C   0  0  0  0  0  0  0  0  0  0  0  0
   17.5183    3.7420    0.0000 C   0  0  0  0  0  0  0  0  0  0  0  0
    4.9297    4.2337    0.0000 C   0  0  0  0  0  0  0  0  0  0  0  0
    5.9171    4.1193    0.0000 C   0  0  0  0  0  0  0  0  0  0  0  0
   16.8006    2.0665    0.0000 C   0  0  0  0  0  0  0  0  0  0  0  0
   16.6965    1.1601    0.0000 C   0  0  3  0  0  0  0  0  0  0  0  0
    6.9753    2.6351    0.0000 C   0  0  0  0  0  0  0  0  0  0  0  0
    7.6954    2.0750    0.0000 C   0  0  3  0  0  0  0  0  0  0  0  0
   15.0571    3.0464    0.0000 C   0  0  0  0  0  0  0  0  0  0  0  0
    5.2318    1.6552    0.0000 C   0  0  0  0  0  0  0  0  0  0  0  0
   17.5000    0.5648    0.0000 C   0  0  0  0  0  0  0  0  0  0  0  0
    8.6217    2.4519    0.0000 C   0  0  0  0  0  0  0  0  0  0  0  0
   17.3861   -0.4287    0.0000 C   0  0  0  0  0  0  0  0  0  0  0  0
   18.4173    0.9629    0.0000 C   0  0  0  0  0  0  0  0  0  0  0  0
    9.4112    1.8381    0.0000 C   0  0  0  0  0  0  0  0  0  0  0  0
    8.7585    3.4425    0.0000 C   0  0  0  0  0  0  0  0  0  0  0  0
   14.1738    4.5363    0.0000 C   0  0  0  0  0  0  0  0  0  0  0  0
    3.4998    1.6752    0.0000 C   0  0  0  0  0  0  0  0  0  0  0  0
   15.2437    0.0184    0.0000 C   0  0  0  0  0  0  0  0  0  0  0  0
    7.9154    0.2404    0.0000 C   0  0  0  0  0  0  0  0  0  0  0  0
   14.2438    0.0068    0.0000 C   0  0  3  0  0  0  0  0  0  0  0  0
    7.4054   -0.6198    0.0000 C   0  0  3  0  0  0  0  0  0  0  0  0
   13.3251    3.0263    0.0000 C   0  0  0  0  0  0  0  0  0  0  0  0
    4.3485    0.1653    0.0000 C   0  0  0  0  0  0  0  0  0  0  0  0
   13.7338    0.8670    0.0000 C   0  0  3  0  0  0  0  0  0  0  0  0
    6.4055   -0.6082    0.0000 C   0  0  3  0  0  0  0  0  0  0  0  0
   12.7449    2.8466    0.0000 C   0  0  3  0  0  0  0  0  0  0  0  0
    4.2004   -0.4238    0.0000 C   0  0  3  0  0  0  0  0  0  0  0  0
   13.1738    4.5247    0.0000 C   0  0  0  0  0  0  0  0  0  0  0  0
    2.9899    0.8151    0.0000 C   0  0  0  0  0  0  0  0  0  0  0  0
   13.6372    2.3951    0.0000 C   0  0  0  0  0  0  0  0  0  0  0  0
    5.1286   -0.0518    0.0000 C   0  0  0  0  0  0  0  0  0  0  0  0
   12.2550    1.9748    0.0000 C   0  0  0  0  0  0  0  0  0  0  0  0
    4.6903   -1.2955    0.0000 C   0  0  0  0  0  0  0  0  0  0  0  0
   14.3333    1.6674    0.0000 C   0  0  0  0  0  0  0  0  0  0  0  0
    6.0335    0.3200    0.0000 C   0  0  0  0  0  0  0  0  0  0  0  0
   11.5061    4.0571    0.0000 C   0  0  0  0  0  0  0  0  0  0  0  0
    2.5223   -0.8527    0.0000 C   0  0  0  0  0  0  0  0  0  0  0  0
   13.3475    1.4380    0.0000 C   0  0  0  0  0  0  0  0  0  0  0  0
   14.6109    2.6228    0.0000 C   0  0  0  0  0  0  0  0  0  0  0  0
    5.1655   -1.2012    0.0000 C   0  0  0  0  0  0  0  0  0  0  0  0
    5.2706    0.9381    0.0000 C   0  0  0  0  0  0  0  0  0  0  0  0
   12.8936   -1.3749    0.0000 C   0  0  0  0  0  0  0  0  0  0  0  0
    8.8953   -1.5031    0.0000 C   0  0  0  0  0  0  0  0  0  0  0  0
   12.9052   -2.3748    0.0000 C   0  0  0  0  0  0  0  0  0  0  0  0
    9.3853   -2.3748    0.0000 C   0  0  0  0  0  0  0  0  0  0  0  0
   12.0113   -2.9095    0.0000 C   0  0  0  0  0  0  0  0  0  0  0  0
   10.2792   -2.9095    0.0000 C   0  0  0  0  0  0  0  0  0  0  0  0
   13.8113   -2.8887    0.0000 C   0  0  0  0  0  0  0  0  0  0  0  0
   12.0113   -3.9095    0.0000 C   0  0  0  0  0  0  0  0  0  0  0  0
   10.2792   -3.9095    0.0000 C   0  0  0  0  0  0  0  0  0  0  0  0
    8.4792   -2.8887    0.0000 C   0  0  0  0  0  0  0  0  0  0  0  0
   12.9052   -4.4441    0.0000 C   0  0  0  0  0  0  0  0  0  0  0  0
    9.3853   -4.4441    0.0000 C   0  0  0  0  0  0  0  0  0  0  0  0
   13.8113   -3.9303    0.0000 C   0  0  0  0  0  0  0  0  0  0  0  0
    8.4792   -3.9303    0.0000 C   0  0  0  0  0  0  0  0  0  0  0  0
   12.8936   -5.4441    0.0000 C   0  0  0  0  0  0  0  0  0  0  0  0
    9.3968   -5.4441    0.0000 C   0  0  0  0  0  0  0  0  0  0  0  0
   15.2245    4.0489    0.0000 H   0  0  0  0  0  0  0  0  0  0  0  0
    4.4624    2.3194    0.0000 H   0  0  0  0  0  0  0  0  0  0  0  0
   16.1089    5.1505    0.0000 H   0  0  0  0  0  0  0  0  0  0  0  0
   15.4980    4.5894    0.0000 H   0  0  0  0  0  0  0  0  0  0  0  0
    3.9812    3.6477    0.0000 H   0  0  0  0  0  0  0  0  0  0  0  0
    4.1429    2.8341    0.0000 H   0  0  0  0  0  0  0  0  0  0  0  0
   17.6900    4.8436    0.0000 H   0  0  0  0  0  0  0  0  0  0  0  0
   16.9669    5.2500    0.0000 H   0  0  0  0  0  0  0  0  0  0  0  0
   17.8895    3.2454    0.0000 H   0  0  0  0  0  0  0  0  0  0  0  0
   18.0511    4.0589    0.0000 H   0  0  0  0  0  0  0  0  0  0  0  0
    5.0654    4.8387    0.0000 H   0  0  0  0  0  0  0  0  0  0  0  0
    4.3423    4.4323    0.0000 H   0  0  0  0  0  0  0  0  0  0  0  0
    6.5343    4.1782    0.0000 H   0  0  0  0  0  0  0  0  0  0  0  0
    5.9234    4.7392    0.0000 H   0  0  0  0  0  0  0  0  0  0  0  0
   16.5425    0.3242    0.0000 H   0  0  0  0  0  0  0  0  0  0  0  0
    8.3294    1.5089    0.0000 H   0  0  0  0  0  0  0  0  0  0  0  0
   16.9313    0.3179    0.0000 H   0  0  0  0  0  0  0  0  0  0  0  0
    9.1960    2.6855    0.0000 H   0  0  0  0  0  0  0  0  0  0  0  0
   15.3506    1.3776    0.0000 H   0  0  0  0  0  0  0  0  0  0  0  0
    6.8099    1.0384    0.0000 H   0  0  0  0  0  0  0  0  0  0  0  0
   16.7702   -0.3581    0.0000 H   0  0  0  0  0  0  0  0  0  0  0  0
   17.3155   -1.0447    0.0000 H   0  0  0  0  0  0  0  0  0  0  0  0
   18.0021   -0.4993    0.0000 H   0  0  0  0  0  0  0  0  0  0  0  0
   18.6642    0.3942    0.0000 H   0  0  0  0  0  0  0  0  0  0  0  0
   18.9861    1.2098    0.0000 H   0  0  0  0  0  0  0  0  0  0  0  0
   18.1705    1.5316    0.0000 H   0  0  0  0  0  0  0  0  0  0  0  0
    9.3727    3.3576    0.0000 H   0  0  0  0  0  0  0  0  0  0  0  0
    8.8433    4.0566    0.0000 H   0  0  0  0  0  0  0  0  0  0  0  0
    8.1443    3.5273    0.0000 H   0  0  0  0  0  0  0  0  0  0  0  0
    9.0306    1.3486    0.0000 H   0  0  0  0  0  0  0  0  0  0  0  0
    9.9007    1.4575    0.0000 H   0  0  0  0  0  0  0  0  0  0  0  0
    9.7917    2.3276    0.0000 H   0  0  0  0  0  0  0  0  0  0  0  0
   14.7937    4.5434    0.0000 H   0  0  0  0  0  0  0  0  0  0  0  0
   14.1666    5.1562    0.0000 H   0  0  0  0  0  0  0  0  0  0  0  0
    3.8160    2.2085    0.0000 H   0  0  0  0  0  0  0  0  0  0  0  0
    2.9665    1.9914    0.0000 H   0  0  0  0  0  0  0  0  0  0  0  0
   13.3938   -0.0030    0.0000 H   0  0  0  0  0  0  0  0  0  0  0  0
    8.2554   -0.6296    0.0000 H   0  0  0  0  0  0  0  0  0  0  0  0
   13.0089    3.5597    0.0000 H   0  0  0  0  0  0  0  0  0  0  0  0
   12.7918    2.7102    0.0000 H   0  0  0  0  0  0  0  0  0  0  0  0
   13.6413    2.4930    0.0000 H   0  0  0  0  0  0  0  0  0  0  0  0
    3.7285    0.1725    0.0000 H   0  0  0  0  0  0  0  0  0  0  0  0
    4.3413   -0.4546    0.0000 H   0  0  0  0  0  0  0  0  0  0  0  0
    4.9684    0.1582    0.0000 H   0  0  0  0  0  0  0  0  0  0  0  0
   13.4513    1.6687    0.0000 H   0  0  0  0  0  0  0  0  0  0  0  0
    5.5738   -0.4327    0.0000 H   0  0  0  0  0  0  0  0  0  0  0  0
   13.4016    3.3862    0.0000 H   0  0  0  0  0  0  0  0  0  0  0  0
    4.1546    0.4250    0.0000 H   0  0  0  0  0  0  0  0  0  0  0  0
   13.7110    3.0107    0.0000 H   0  0  0  0  0  0  0  0  0  0  0  0
    5.7477   -0.0860    0.0000 H   0  0  0  0  0  0  0  0  0  0  0  0
   14.2943   -1.1687    0.0000 H   0  0  0  0  0  0  0  0  0  0  0  0
    7.5792   -2.0248    0.0000 H   0  0  0  0  0  0  0  0  0  0  0  0
   14.8295    1.2956    0.0000 H   0  0  0  0  0  0  0  0  0  0  0  0
   14.7051    2.1636    0.0000 H   0  0  0  0  0  0  0  0  0  0  0  0
   13.8371    2.0391    0.0000 H   0  0  0  0  0  0  0  0  0  0  0  0
    6.6090    0.5507    0.0000 H   0  0  0  0  0  0  0  0  0  0  0  0
    5.8029    0.8955    0.0000 H   0  0  0  0  0  0  0  0  0  0  0  0
    5.4580    0.0894    0.0000 H   0  0  0  0  0  0  0  0  0  0  0  0
   11.6596    4.6578    0.0000 H   0  0  0  0  0  0  0  0  0  0  0  0
   10.9054    4.2106    0.0000 H   0  0  0  0  0  0  0  0  0  0  0  0
   11.3526    3.4564    0.0000 H   0  0  0  0  0  0  0  0  0  0  0  0
    2.0890   -0.4092    0.0000 H   0  0  0  0  0  0  0  0  0  0  0  0
    2.0788   -1.2860    0.0000 H   0  0  0  0  0  0  0  0  0  0  0  0
    2.9556   -1.2961    0.0000 H   0  0  0  0  0  0  0  0  0  0  0  0
   12.7541    1.6176    0.0000 H   0  0  0  0  0  0  0  0  0  0  0  0
   13.1680    0.8446    0.0000 H   0  0  0  0  0  0  0  0  0  0  0  0
   13.9410    1.2584    0.0000 H   0  0  0  0  0  0  0  0  0  0  0  0
   14.7521    2.0191    0.0000 H   0  0  0  0  0  0  0  0  0  0  0  0
   15.2146    2.7640    0.0000 H   0  0  0  0  0  0  0  0  0  0  0  0
   14.4697    3.2266    0.0000 H   0  0  0  0  0  0  0  0  0  0  0  0
    5.8843    0.8500    0.0000 H   0  0  0  0  0  0  0  0  0  0  0  0
    5.3586    1.5518    0.0000 H   0  0  0  0  0  0  0  0  0  0  0  0
    4.6569    1.0261    0.0000 H   0  0  0  0  0  0  0  0  0  0  0  0
    4.5458   -1.2211    0.0000 H   0  0  0  0  0  0  0  0  0  0  0  0
    5.1854   -1.8209    0.0000 H   0  0  0  0  0  0  0  0  0  0  0  0
    5.7852   -1.1813    0.0000 H   0  0  0  0  0  0  0  0  0  0  0  0
    7.9435   -2.5766    0.0000 H   0  0  0  0  0  0  0  0  0  0  0  0
    7.9435   -4.2424    0.0000 H   0  0  0  0  0  0  0  0  0  0  0  0
   15.2135   -2.6933    0.0000 H   0  0  0  0  0  0  0  0  0  0  0  0
   14.6730   -1.7653    0.0000 H   0  0  0  0  0  0  0  0  0  0  0  0
   12.2737   -5.4369    0.0000 H   0  0  0  0  0  0  0  0  0  0  0  0
   12.8865   -6.0640    0.0000 H   0  0  0  0  0  0  0  0  0  0  0  0
   13.5136   -5.4512    0.0000 H   0  0  0  0  0  0  0  0  0  0  0  0
    8.7769   -5.4512    0.0000 H   0  0  0  0  0  0  0  0  0  0  0  0
    9.4040   -6.0640    0.0000 H   0  0  0  0  0  0  0  0  0  0  0  0
   10.0168   -5.4369    0.0000 H   0  0  0  0  0  0  0  0  0  0  0  0
  1 37  2  0  0  0  0
  2 39  2  0  0  0  0
  3 41  2  0  0  0  0
  4 42  2  0  0  0  0
  5 57  1  0  0  0  0
  5 65  1  0  0  0  0
  6 58  1  0  0  0  0
  6 66  1  0  0  0  0
  7 51  2  0  0  0  0
  8 52  2  0  0  0  0
  9 61  2  0  0  0  0
 10 62  2  0  0  0  0
 11 65  2  0  0  0  0
 12 66  2  0  0  0  0
 13 82  1  0  0  0  0
 13 83  1  0  0  0  0
 14 75  2  0  0  0  0
 15 76  2  0  0  0  0
 16 87  2  0  0  0  0
 17 29  1  0  0  0  0
 17 34  1  0  0  0  0
 17 37  1  0  0  0  0
 18 30  1  0  0  0  0
 18 36  1  0  0  0  0
 18 39  1  0  0  0  0
 19 41  1  0  0  0  0
 19 49  1  0  0  0  0
 19 55  1  0  0  0  0
 20 42  1  0  0  0  0
 20 50  1  0  0  0  0
 20 56  1  0  0  0  0
 21 38  1  0  0  0  0
 21 51  1  0  0  0  0
 21109  1  0  0  0  0
 22 40  1  0  0  0  0
 22 52  1  0  0  0  0
 22110  1  0  0  0  0
 23 59  1  0  0  0  0
 23 61  1  0  0  0  0
 23 69  1  0  0  0  0
 24 60  1  0  0  0  0
 24 62  1  0  0  0  0
 24 70  1  0  0  0  0
 25 53  1  0  0  0  0
 25 75  1  0  0  0  0
 25141  1  0  0  0  0
 26 54  1  0  0  0  0
 26 76  1  0  0  0  0
 26142  1  0  0  0  0
 27 79  2  0  0  0  0
 27 80  1  0  0  0  0
 28 81  1  0  0  0  0
 28169  1  0  0  0  0
 28170  1  0  0  0  0
 29 31  1  0  0  0  0
 29 41  1  0  0  0  0
 29 91  1  0  0  0  0
 30 32  1  0  0  0  0
 30 42  1  0  0  0  0
 30 92  1  0  0  0  0
 31 33  1  0  0  0  0
 31 93  1  0  0  0  0
 31 94  1  0  0  0  0
 32 35  1  0  0  0  0
 32 95  1  0  0  0  0
 32 96  1  0  0  0  0
 33 34  1  0  0  0  0
 33 97  1  0  0  0  0
 33 98  1  0  0  0  0
 34 99  1  0  0  0  0
 34100  1  0  0  0  0
 35 36  1  0  0  0  0
 35101  1  0  0  0  0
 35102  1  0  0  0  0
 36103  1  0  0  0  0
 36104  1  0  0  0  0
 37 38  1  0  0  0  0
 38 43  1  0  0  0  0
 38105  1  0  0  0  0
 39 40  1  0  0  0  0
 40 44  1  0  0  0  0
 40106  1  0  0  0  0
 43 45  1  0  0  0  0
 43 46  1  0  0  0  0
 43107  1  0  0  0  0
 44 47  1  0  0  0  0
 44 48  1  0  0  0  0
 44108  1  0  0  0  0
 45111  1  0  0  0  0
 45112  1  0  0  0  0
 45113  1  0  0  0  0
 46114  1  0  0  0  0
 46115  1  0  0  0  0
 46116  1  0  0  0  0
 47120  1  0  0  0  0
 47121  1  0  0  0  0
 47122  1  0  0  0  0
 48117  1  0  0  0  0
 48118  1  0  0  0  0
 48119  1  0  0  0  0
 49 61  1  0  0  0  0
 49123  1  0  0  0  0
 49124  1  0  0  0  0
 50 62  1  0  0  0  0
 50125  1  0  0  0  0
 50126  1  0  0  0  0
 51 53  1  0  0  0  0
 52 54  1  0  0  0  0
 53 57  1  0  0  0  0
 53127  1  0  0  0  0
 54 58  1  0  0  0  0
 54128  1  0  0  0  0
 55129  1  0  0  0  0
 55130  1  0  0  0  0
 55131  1  0  0  0  0
 56132  1  0  0  0  0
 56133  1  0  0  0  0
 56134  1  0  0  0  0
 57 67  1  0  0  0  0
 57135  1  0  0  0  0
 58 68  1  0  0  0  0
 58136  1  0  0  0  0
 59 63  1  0  0  0  0
 59 65  1  0  0  0  0
 59137  1  0  0  0  0
 60 64  1  0  0  0  0
 60 66  1  0  0  0  0
 60138  1  0  0  0  0
 63 71  1  0  0  0  0
 63 72  1  0  0  0  0
 63139  1  0  0  0  0
 64 73  1  0  0  0  0
 64 74  1  0  0  0  0
 64140  1  0  0  0  0
 67143  1  0  0  0  0
 67144  1  0  0  0  0
 67145  1  0  0  0  0
 68146  1  0  0  0  0
 68147  1  0  0  0  0
 68148  1  0  0  0  0
 69149  1  0  0  0  0
 69150  1  0  0  0  0
 69151  1  0  0  0  0
 70152  1  0  0  0  0
 70153  1  0  0  0  0
 70154  1  0  0  0  0
 71155  1  0  0  0  0
 71156  1  0  0  0  0
 71157  1  0  0  0  0
 72158  1  0  0  0  0
 72159  1  0  0  0  0
 72160  1  0  0  0  0
 73164  1  0  0  0  0
 73165  1  0  0  0  0
 73166  1  0  0  0  0
 74161  1  0  0  0  0
 74162  1  0  0  0  0
 74163  1  0  0  0  0
 75 77  1  0  0  0  0
 76 78  1  0  0  0  0
 77 79  1  0  0  0  0
 77 81  2  0  0  0  0
 78 80  2  0  0  0  0
 78 84  1  0  0  0  0
 79 82  1  0  0  0  0
 80 83  1  0  0  0  0
 81 87  1  0  0  0  0
 82 85  2  0  0  0  0
 83 86  2  0  0  0  0
 84 88  2  0  0  0  0
 84167  1  0  0  0  0
 85 87  1  0  0  0  0
 85 89  1  0  0  0  0
 86 88  1  0  0  0  0
 86 90  1  0  0  0  0
 88168  1  0  0  0  0
 89171  1  0  0  0  0
 89172  1  0  0  0  0
 89173  1  0  0  0  0
 90174  1  0  0  0  0
 90175  1  0  0  0  0
 90176  1  0  0  0  0
M  END
> <PUBCHEM_COMPOUND_CID>
2019

> <PUBCHEM_COMPOUND_CANONICALIZED>
1

> <PUBCHEM_CACTVS_COMPLEXITY>
3030

> <PUBCHEM_CACTVS_HBOND_ACCEPTOR>
18

> <PUBCHEM_CACTVS_HBOND_DONOR>
5

> <PUBCHEM_CACTVS_ROTATABLE_BOND>
8

> <PUBCHEM_CACTVS_SUBSKEYS>
AAADcfB//gAAAAAAAAAAAAAAAAAAAWLAAAAwQIAAAAAAAACBAAAAHgAQAAAADTzhmAYyzoPABACoA6XyXASCCAAkIAAIiIGtTNgOZj6E9buXOajm9hGY6ce6yTCOQAABQAAKEACAAAKAABQgAAAAAAAAAA==

> <PUBCHEM_IUPAC_OPENEYE_NAME>
2-amino-N1,N9-bis(3,10-diisopropyl-7,11,14-trimethyl-2,5,9,12,15-pentaoxo-8-oxa-1,4,11,14-tetrazabicyclo[14.3.0]nonadecan-6-yl)-4,6-dimethyl-3-oxo-phenoxazine-1,9-dicarboxamide

> <PUBCHEM_IUPAC_CAS_NAME>
2-amino-4,6-dimethyl-3-oxo-N1,N9-bis[7,11,14-trimethyl-2,5,9,12,15-pentaoxo-3,10-di(propan-2-yl)-8-oxa-1,4,11,14-tetrazabicyclo[14.3.0]nonadecan-6-yl]phenoxazine-1,9-dicarboxamide

> <PUBCHEM_IUPAC_NAME>
2-amino-4,6-dimethyl-3-oxo-1-N,9-N-bis[7,11,14-trimethyl-2,5,9,12,15-pentaoxo-3,10-di(propan-2-yl)-8-oxa-1,4,11,14-tetrazabicyclo[14.3.0]nonadecan-6-yl]phenoxazine-1,9-dicarboxamide

> <PUBCHEM_IUPAC_SYSTEMATIC_NAME>
2-azanyl-4,6-dimethyl-3-oxidanylidene-N1,N9-bis[7,11,14-trimethyl-2,5,9,12,15-pentakis(oxidanylidene)-3,10-di(propan-2-yl)-8-oxa-1,4,11,14-tetrazabicyclo[14.3.0]nonadecan-6-yl]phenoxazine-1,9-dicarboxamide

> <PUBCHEM_IUPAC_TRADITIONAL_NAME>
2-amino-N,N'-bis(3,10-diisopropyl-2,5,9,12,15-pentaketo-7,11,14-trimethyl-8-oxa-1,4,11,14-tetrazabicyclo[14.3.0]nonadecan-6-yl)-3-keto-4,6-dimethyl-phenoxazine-1,9-dicarboxamide

> <PUBCHEM_IUPAC_INCHI>
InChI=1S/C62H86N12O16/c1-27(2)42-59(84)73-23-17-19-36(73)57(82)69(13)25-38(75)71(15)48(29(5)6)61(86)88-33(11)44(55(80)65-42)67-53(78)35-22-21-31(9)51-46(35)64-47-40(41(63)50(77)32(10)52(47)90-51)54(79)68-45-34(12)89-62(87)49(30(7)8)72(16)39(76)26-70(14)58(83)37-20-18-24-74(37)60(85)43(28(3)4)66-56(45)81/h21-22,27-30,33-34,36-37,42-45,48-49H,17-20,23-26,63H2,1-16H3,(H,65,80)(H,66,81)(H,67,78)(H,68,79)

> <PUBCHEM_IUPAC_INCHIKEY>
RJURFGZVJUQBHK-UHFFFAOYSA-N

> <PUBCHEM_XLOGP3_AA>
3.8

> <PUBCHEM_EXACT_MASS>
1254.628475

> <PUBCHEM_MOLECULAR_FORMULA>
C62H86N12O16

> <PUBCHEM_MOLECULAR_WEIGHT>
1255.41704

> <PUBCHEM_OPENEYE_CAN_SMILES>
CC1C(C(=O)NC(C(=O)N2CCCC2C(=O)N(CC(=O)N(C(C(=O)O1)C(C)C)C)C)C(C)C)NC(=O)C3=C4C(=C(C=C3)C)OC5=C(C(=O)C(=C(C5=N4)C(=O)NC6C(OC(=O)C(N(C(=O)CN(C(=O)C7CCCN7C(=O)C(NC6=O)C(C)C)C)C)C(C)C)C)N)C

> <PUBCHEM_OPENEYE_ISO_SMILES>
CC1C(C(=O)NC(C(=O)N2CCCC2C(=O)N(CC(=O)N(C(C(=O)O1)C(C)C)C)C)C(C)C)NC(=O)C3=C4C(=C(C=C3)C)OC5=C(C(=O)C(=C(C5=N4)C(=O)NC6C(OC(=O)C(N(C(=O)CN(C(=O)C7CCCN7C(=O)C(NC6=O)C(C)C)C)C)C(C)C)C)N)C

> <PUBCHEM_CACTVS_TPSA>
356

> <PUBCHEM_MONOISOTOPIC_WEIGHT>
1254.628475

> <PUBCHEM_TOTAL_CHARGE>
0

> <PUBCHEM_HEAVY_ATOM_COUNT>
90

> <PUBCHEM_ATOM_DEF_STEREO_COUNT>
0

> <PUBCHEM_ATOM_UDEF_STEREO_COUNT>
10

> <PUBCHEM_BOND_DEF_STEREO_COUNT>
0

> <PUBCHEM_BOND_UDEF_STEREO_COUNT>
0

> <PUBCHEM_ISOTOPIC_ATOM_COUNT>
0

> <PUBCHEM_COMPONENT_COUNT>
1

> <PUBCHEM_CACTVS_TAUTO_COUNT>
1000

> <PUBCHEM_COORDINATE_TYPE>
1
5
255

> <PUBCHEM_BONDANNOTATIONS>
13  82  8
13  83  8
27  79  8
27  80  8
29  91  3
30  92  3
38  105  3
40  106  3
53  127  3
54  128  3
57  135  3
58  136  3
59  137  3
60  138  3
77  79  8
77  81  8
78  80  8
78  84  8
80  83  8
81  87  8
82  85  8
83  86  8
84  88  8
85  87  8
86  88  8

$$$$
