2092
  -OEChem-12171207532D

 55 57  0     1  0  0  0  0  0999 V2000
    3.4782    2.0483    0.0000 O   0  0  0  0  0  0  0  0  0  0  0  0
    4.4487   -0.4462    0.0000 O   0  0  0  0  0  0  0  0  0  0  0  0
   14.0410   -0.9704    0.0000 O   0  0  0  0  0  0  0  0  0  0  0  0
   14.0410    1.0779    0.0000 O   0  0  0  0  0  0  0  0  0  0  0  0
    5.3147    1.0538    0.0000 N   0  0  0  0  0  0  0  0  0  0  0  0
    8.7788    1.0538    0.0000 N   0  0  0  0  0  0  0  0  0  0  0  0
   10.5109    1.0538    0.0000 N   0  0  0  0  0  0  0  0  0  0  0  0
    9.6448   -0.4462    0.0000 N   0  0  0  0  0  0  0  0  0  0  0  0
   10.5109   -1.9462    0.0000 N   0  0  0  0  0  0  0  0  0  0  0  0
    3.5827    1.0538    0.0000 C   0  0  3  0  0  0  0  0  0  0  0  0
    2.6691    0.6470    0.0000 C   0  0  0  0  0  0  0  0  0  0  0  0
    2.0000    1.3902    0.0000 C   0  0  0  0  0  0  0  0  0  0  0  0
    2.5000    2.2562    0.0000 C   0  0  0  0  0  0  0  0  0  0  0  0
    4.4487    0.5538    0.0000 C   0  0  0  0  0  0  0  0  0  0  0  0
    6.1808    0.5538    0.0000 C   0  0  0  0  0  0  0  0  0  0  0  0
    7.0468    1.0538    0.0000 C   0  0  0  0  0  0  0  0  0  0  0  0
    7.9128    0.5538    0.0000 C   0  0  0  0  0  0  0  0  0  0  0  0
    9.6448    0.5538    0.0000 C   0  0  0  0  0  0  0  0  0  0  0  0
    8.7788    2.0538    0.0000 C   0  0  0  0  0  0  0  0  0  0  0  0
   11.3769   -0.4462    0.0000 C   0  0  0  0  0  0  0  0  0  0  0  0
   11.3769    0.5538    0.0000 C   0  0  0  0  0  0  0  0  0  0  0  0
   10.5109   -0.9462    0.0000 C   0  0  0  0  0  0  0  0  0  0  0  0
   12.2708   -0.9809    0.0000 C   0  0  0  0  0  0  0  0  0  0  0  0
   12.2708    1.0884    0.0000 C   0  0  0  0  0  0  0  0  0  0  0  0
   13.1769   -0.4670    0.0000 C   0  0  0  0  0  0  0  0  0  0  0  0
   13.1769    0.5746    0.0000 C   0  0  0  0  0  0  0  0  0  0  0  0
   14.0372   -1.9704    0.0000 C   0  0  0  0  0  0  0  0  0  0  0  0
   14.0372    2.0779    0.0000 C   0  0  0  0  0  0  0  0  0  0  0  0
    4.1026    1.3915    0.0000 H   0  0  0  0  0  0  0  0  0  0  0  0
    2.1675    0.2826    0.0000 H   0  0  0  0  0  0  0  0  0  0  0  0
    2.9791    0.1101    0.0000 H   0  0  0  0  0  0  0  0  0  0  0  0
    1.4984    1.7546    0.0000 H   0  0  0  0  0  0  0  0  0  0  0  0
    1.5851    0.9294    0.0000 H   0  0  0  0  0  0  0  0  0  0  0  0
    2.6916    2.8459    0.0000 H   0  0  0  0  0  0  0  0  0  0  0  0
    1.9336    2.5084    0.0000 H   0  0  0  0  0  0  0  0  0  0  0  0
    5.7822    0.0788    0.0000 H   0  0  0  0  0  0  0  0  0  0  0  0
    6.5793    0.0788    0.0000 H   0  0  0  0  0  0  0  0  0  0  0  0
    7.4453    1.5287    0.0000 H   0  0  0  0  0  0  0  0  0  0  0  0
    6.6482    1.5287    0.0000 H   0  0  0  0  0  0  0  0  0  0  0  0
    5.3147    1.6738    0.0000 H   0  0  0  0  0  0  0  0  0  0  0  0
    7.5143    0.0788    0.0000 H   0  0  0  0  0  0  0  0  0  0  0  0
    8.3113    0.0788    0.0000 H   0  0  0  0  0  0  0  0  0  0  0  0
    9.3988    2.0538    0.0000 H   0  0  0  0  0  0  0  0  0  0  0  0
    8.7788    2.6738    0.0000 H   0  0  0  0  0  0  0  0  0  0  0  0
    8.1588    2.0538    0.0000 H   0  0  0  0  0  0  0  0  0  0  0  0
   12.2637   -1.6008    0.0000 H   0  0  0  0  0  0  0  0  0  0  0  0
   12.2637    1.7084    0.0000 H   0  0  0  0  0  0  0  0  0  0  0  0
    9.9739   -2.2562    0.0000 H   0  0  0  0  0  0  0  0  0  0  0  0
   11.0478   -2.2562    0.0000 H   0  0  0  0  0  0  0  0  0  0  0  0
   13.4172   -1.9680    0.0000 H   0  0  0  0  0  0  0  0  0  0  0  0
   14.0348   -2.5904    0.0000 H   0  0  0  0  0  0  0  0  0  0  0  0
   14.6571   -1.9728    0.0000 H   0  0  0  0  0  0  0  0  0  0  0  0
   14.6571    2.0803    0.0000 H   0  0  0  0  0  0  0  0  0  0  0  0
   14.0348    2.6979    0.0000 H   0  0  0  0  0  0  0  0  0  0  0  0
   13.4172    2.0755    0.0000 H   0  0  0  0  0  0  0  0  0  0  0  0
  1 10  1  0  0  0  0
  1 13  1  0  0  0  0
  2 14  2  0  0  0  0
  3 25  1  0  0  0  0
  3 27  1  0  0  0  0
  4 26  1  0  0  0  0
  4 28  1  0  0  0  0
  5 14  1  0  0  0  0
  5 15  1  0  0  0  0
  5 40  1  0  0  0  0
  6 17  1  0  0  0  0
  6 18  1  0  0  0  0
  6 19  1  0  0  0  0
  7 18  2  0  0  0  0
  7 21  1  0  0  0  0
  8 18  1  0  0  0  0
  8 22  2  0  0  0  0
  9 22  1  0  0  0  0
  9 48  1  0  0  0  0
  9 49  1  0  0  0  0
 10 11  1  0  0  0  0
 10 14  1  0  0  0  0
 10 29  1  0  0  0  0
 11 12  1  0  0  0  0
 11 30  1  0  0  0  0
 11 31  1  0  0  0  0
 12 13  1  0  0  0  0
 12 32  1  0  0  0  0
 12 33  1  0  0  0  0
 13 34  1  0  0  0  0
 13 35  1  0  0  0  0
 15 16  1  0  0  0  0
 15 36  1  0  0  0  0
 15 37  1  0  0  0  0
 16 17  1  0  0  0  0
 16 38  1  0  0  0  0
 16 39  1  0  0  0  0
 17 41  1  0  0  0  0
 17 42  1  0  0  0  0
 19 43  1  0  0  0  0
 19 44  1  0  0  0  0
 19 45  1  0  0  0  0
 20 21  1  0  0  0  0
 20 22  1  0  0  0  0
 20 23  2  0  0  0  0
 21 24  2  0  0  0  0
 23 25  1  0  0  0  0
 23 46  1  0  0  0  0
 24 26  1  0  0  0  0
 24 47  1  0  0  0  0
 25 26  2  0  0  0  0
 27 50  1  0  0  0  0
 27 51  1  0  0  0  0
 27 52  1  0  0  0  0
 28 53  1  0  0  0  0
 28 54  1  0  0  0  0
 28 55  1  0  0  0  0
M  END
> <PUBCHEM_COMPOUND_CID>
2092

> <PUBCHEM_COMPOUND_CANONICALIZED>
1

> <PUBCHEM_CACTVS_COMPLEXITY>
511

> <PUBCHEM_CACTVS_HBOND_ACCEPTOR>
8

> <PUBCHEM_CACTVS_HBOND_DONOR>
2

> <PUBCHEM_CACTVS_ROTATABLE_BOND>
8

> <PUBCHEM_CACTVS_SUBSKEYS>
AAADceB7uAAAAAAAAAAAAAAAAAAAASAAAAA8QAAAAAAAAACx8AAAHgAQAAAADBzhngYz9vfIFACoAydydAKCiCkhIqABmKF+7JiPLrLE+N+HNCpu1hva6Ce41BMOIEABAgACQABAgAIEAASAAAAAAAAAAA==

> <PUBCHEM_IUPAC_OPENEYE_NAME>
N-[3-[(4-amino-6,7-dimethoxy-quinazolin-2-yl)-methyl-amino]propyl]tetrahydrofuran-2-carboxamide

> <PUBCHEM_IUPAC_CAS_NAME>
N-[3-[(4-amino-6,7-dimethoxy-2-quinazolinyl)-methylamino]propyl]-2-oxolanecarboxamide

> <PUBCHEM_IUPAC_NAME>
N-[3-[(4-amino-6,7-dimethoxyquinazolin-2-yl)-methylamino]propyl]oxolane-2-carboxamide

> <PUBCHEM_IUPAC_SYSTEMATIC_NAME>
N-[3-[(4-azanyl-6,7-dimethoxy-quinazolin-2-yl)-methyl-amino]propyl]oxolane-2-carboxamide

> <PUBCHEM_IUPAC_TRADITIONAL_NAME>
N-[3-[(4-amino-6,7-dimethoxy-quinazolin-2-yl)-methyl-amino]propyl]tetrahydrofuran-2-carboxamide

> <PUBCHEM_IUPAC_INCHI>
InChI=1S/C19H27N5O4/c1-24(8-5-7-21-18(25)14-6-4-9-28-14)19-22-13-11-16(27-3)15(26-2)10-12(13)17(20)23-19/h10-11,14H,4-9H2,1-3H3,(H,21,25)(H2,20,22,23)

> <PUBCHEM_IUPAC_INCHIKEY>
WNMJYKCGWZFFKR-UHFFFAOYSA-N

> <PUBCHEM_XLOGP3_AA>
1.7

> <PUBCHEM_EXACT_MASS>
389.206304

> <PUBCHEM_MOLECULAR_FORMULA>
C19H27N5O4

> <PUBCHEM_MOLECULAR_WEIGHT>
389.44878

> <PUBCHEM_OPENEYE_CAN_SMILES>
CN(CCCNC(=O)C1CCCO1)C2=NC3=CC(=C(C=C3C(=N2)N)OC)OC

> <PUBCHEM_OPENEYE_ISO_SMILES>
CN(CCCNC(=O)C1CCCO1)C2=NC3=CC(=C(C=C3C(=N2)N)OC)OC

> <PUBCHEM_CACTVS_TPSA>
112

> <PUBCHEM_MONOISOTOPIC_WEIGHT>
389.206304

> <PUBCHEM_TOTAL_CHARGE>
0

> <PUBCHEM_HEAVY_ATOM_COUNT>
28

> <PUBCHEM_ATOM_DEF_STEREO_COUNT>
0

> <PUBCHEM_ATOM_UDEF_STEREO_COUNT>
1

> <PUBCHEM_BOND_DEF_STEREO_COUNT>
0

> <PUBCHEM_BOND_UDEF_STEREO_COUNT>
0

> <PUBCHEM_ISOTOPIC_ATOM_COUNT>
0

> <PUBCHEM_COMPONENT_COUNT>
1

> <PUBCHEM_CACTVS_TAUTO_COUNT>
6

> <PUBCHEM_COORDINATE_TYPE>
1
5
255

> <PUBCHEM_BONDANNOTATIONS>
10  14  3
20  21  8
20  22  8
20  23  8
21  24  8
23  25  8
24  26  8
25  26  8
7  18  8
7  21  8
8  18  8
8  22  8

$$$$
