213039
  -OEChem-12171208232D

 75 78  0     1  0  0  0  0  0999 V2000
    6.3238    1.8811    0.0000 S   0  0  0  0  0  0  0  0  0  0  0  0
    8.1779   -5.4433    0.0000 O   0  0  0  0  0  0  0  0  0  0  0  0
   10.0752   -5.4390    0.0000 O   0  0  0  0  0  0  0  0  0  0  0  0
    7.8689   -2.8742    0.0000 O   0  0  0  0  0  0  0  0  0  0  0  0
    4.3164   -0.3484    0.0000 O   0  0  0  0  0  0  0  0  0  0  0  0
    6.2216   -3.4094    0.0000 O   0  0  0  0  0  0  0  0  0  0  0  0
    5.5807    2.5502    0.0000 O   0  0  0  0  0  0  0  0  0  0  0  0
    7.0670    1.2119    0.0000 O   0  0  0  0  0  0  0  0  0  0  0  0
    6.5817   -1.7152    0.0000 N   0  0  0  0  0  0  0  0  0  0  0  0
    5.6547    1.1379    0.0000 N   0  0  3  0  0  0  0  0  0  0  0  0
    9.0003    4.8536    0.0000 N   0  0  0  0  0  0  0  0  0  0  0  0
    9.1290   -4.1343    0.0000 C   0  0  2  0  0  0  0  0  0  0  0  0
    9.1290   -5.1343    0.0000 C   0  0  1  0  0  0  0  0  0  0  0  0
    8.1779   -3.8253    0.0000 C   0  0  2  0  0  0  0  0  0  0  0  0
   10.0752   -3.8296    0.0000 C   0  0  0  0  0  0  0  0  0  0  0  0
    7.5901   -4.6343    0.0000 C   0  0  0  0  0  0  0  0  0  0  0  0
   10.6588   -4.6343    0.0000 C   0  0  0  0  0  0  0  0  0  0  0  0
    5.6036   -1.5073    0.0000 C   0  0  2  0  0  0  0  0  0  0  0  0
    5.2946   -0.5563    0.0000 C   0  0  1  0  0  0  0  0  0  0  0  0
    6.8907   -2.6663    0.0000 C   0  0  0  0  0  0  0  0  0  0  0  0
    5.9637    0.1869    0.0000 C   0  0  0  0  0  0  0  0  0  0  0  0
    4.9344   -2.2505    0.0000 C   0  0  0  0  0  0  0  0  0  0  0  0
    4.6765    1.3458    0.0000 C   0  0  0  0  0  0  0  0  0  0  0  0
    4.3675    2.2969    0.0000 C   0  0  0  0  0  0  0  0  0  0  0  0
    3.9563   -2.0426    0.0000 C   0  0  0  0  0  0  0  0  0  0  0  0
    6.9929    2.6242    0.0000 C   0  0  0  0  0  0  0  0  0  0  0  0
    3.3894    2.5048    0.0000 C   0  0  0  0  0  0  0  0  0  0  0  0
    5.0366    3.0400    0.0000 C   0  0  0  0  0  0  0  0  0  0  0  0
    3.6473   -1.0915    0.0000 C   0  0  0  0  0  0  0  0  0  0  0  0
    3.2872   -2.7857    0.0000 C   0  0  0  0  0  0  0  0  0  0  0  0
    7.9711    2.4163    0.0000 C   0  0  0  0  0  0  0  0  0  0  0  0
    6.6839    3.5753    0.0000 C   0  0  0  0  0  0  0  0  0  0  0  0
    2.6691   -0.8836    0.0000 C   0  0  0  0  0  0  0  0  0  0  0  0
    2.3090   -2.5778    0.0000 C   0  0  0  0  0  0  0  0  0  0  0  0
    2.0000   -1.6267    0.0000 C   0  0  0  0  0  0  0  0  0  0  0  0
    8.6402    3.1594    0.0000 C   0  0  0  0  0  0  0  0  0  0  0  0
    7.3530    4.3184    0.0000 C   0  0  0  0  0  0  0  0  0  0  0  0
    8.3312    4.1105    0.0000 C   0  0  0  0  0  0  0  0  0  0  0  0
    9.1301   -3.2843    0.0000 H   0  0  0  0  0  0  0  0  0  0  0  0
    9.1301   -5.9843    0.0000 H   0  0  0  0  0  0  0  0  0  0  0  0
    7.5655   -3.7283    0.0000 H   0  0  0  0  0  0  0  0  0  0  0  0
   10.6126   -3.5203    0.0000 H   0  0  0  0  0  0  0  0  0  0  0  0
    9.8242   -3.2626    0.0000 H   0  0  0  0  0  0  0  0  0  0  0  0
    7.1294   -4.2194    0.0000 H   0  0  0  0  0  0  0  0  0  0  0  0
    7.1294   -5.0492    0.0000 H   0  0  0  0  0  0  0  0  0  0  0  0
   11.1197   -5.0490    0.0000 H   0  0  0  0  0  0  0  0  0  0  0  0
   11.1197   -4.2196    0.0000 H   0  0  0  0  0  0  0  0  0  0  0  0
    6.0184   -1.0466    0.0000 H   0  0  0  0  0  0  0  0  0  0  0  0
    5.1030    0.0334    0.0000 H   0  0  0  0  0  0  0  0  0  0  0  0
    6.3454   -0.3017    0.0000 H   0  0  0  0  0  0  0  0  0  0  0  0
    6.5111    0.4779    0.0000 H   0  0  0  0  0  0  0  0  0  0  0  0
    6.9966   -1.2545    0.0000 H   0  0  0  0  0  0  0  0  0  0  0  0
    4.7022   -2.8253    0.0000 H   0  0  0  0  0  0  0  0  0  0  0  0
    5.4602   -2.5790    0.0000 H   0  0  0  0  0  0  0  0  0  0  0  0
    4.0626    1.2596    0.0000 H   0  0  0  0  0  0  0  0  0  0  0  0
    4.6549    0.7262    0.0000 H   0  0  0  0  0  0  0  0  0  0  0  0
    4.9740    2.1680    0.0000 H   0  0  0  0  0  0  0  0  0  0  0  0
    4.1248    0.2413    0.0000 H   0  0  0  0  0  0  0  0  0  0  0  0
    3.5183    3.1113    0.0000 H   0  0  0  0  0  0  0  0  0  0  0  0
    2.7829    2.6337    0.0000 H   0  0  0  0  0  0  0  0  0  0  0  0
    3.2604    1.8984    0.0000 H   0  0  0  0  0  0  0  0  0  0  0  0
    5.4974    2.6252    0.0000 H   0  0  0  0  0  0  0  0  0  0  0  0
    5.4515    3.5008    0.0000 H   0  0  0  0  0  0  0  0  0  0  0  0
    4.5759    3.4549    0.0000 H   0  0  0  0  0  0  0  0  0  0  0  0
    4.0621   -0.6308    0.0000 H   0  0  0  0  0  0  0  0  0  0  0  0
    3.4788   -3.3754    0.0000 H   0  0  0  0  0  0  0  0  0  0  0  0
    8.1627    1.8266    0.0000 H   0  0  0  0  0  0  0  0  0  0  0  0
    6.0775    3.7042    0.0000 H   0  0  0  0  0  0  0  0  0  0  0  0
    2.4775   -0.2939    0.0000 H   0  0  0  0  0  0  0  0  0  0  0  0
    1.8942   -3.0386    0.0000 H   0  0  0  0  0  0  0  0  0  0  0  0
    9.2467    3.0305    0.0000 H   0  0  0  0  0  0  0  0  0  0  0  0
    7.1614    4.9081    0.0000 H   0  0  0  0  0  0  0  0  0  0  0  0
    1.3936   -1.4978    0.0000 H   0  0  0  0  0  0  0  0  0  0  0  0
    8.8087    5.4433    0.0000 H   0  0  0  0  0  0  0  0  0  0  0  0
    9.6068    4.7247    0.0000 H   0  0  0  0  0  0  0  0  0  0  0  0
  1  7  2  0  0  0  0
  1  8  2  0  0  0  0
  1 10  1  0  0  0  0
  1 26  1  0  0  0  0
  2 13  1  0  0  0  0
  2 16  1  0  0  0  0
  3 13  1  0  0  0  0
  3 17  1  0  0  0  0
 14  4  1  6  0  0  0
  4 20  1  0  0  0  0
 19  5  1  6  0  0  0
  5 58  1  0  0  0  0
  6 20  2  0  0  0  0
 18  9  1  1  0  0  0
  9 20  1  0  0  0  0
  9 52  1  0  0  0  0
 10 21  1  0  0  0  0
 10 23  1  0  0  0  0
 11 38  1  0  0  0  0
 11 74  1  0  0  0  0
 11 75  1  0  0  0  0
 12 13  1  0  0  0  0
 12 14  1  0  0  0  0
 12 15  1  0  0  0  0
 12 39  1  1  0  0  0
 13 40  1  1  0  0  0
 14 16  1  0  0  0  0
 14 41  1  0  0  0  0
 15 17  1  0  0  0  0
 15 42  1  0  0  0  0
 15 43  1  0  0  0  0
 16 44  1  0  0  0  0
 16 45  1  0  0  0  0
 17 46  1  0  0  0  0
 17 47  1  0  0  0  0
 18 19  1  0  0  0  0
 18 22  1  0  0  0  0
 18 48  1  0  0  0  0
 19 21  1  0  0  0  0
 19 49  1  0  0  0  0
 21 50  1  0  0  0  0
 21 51  1  0  0  0  0
 22 25  1  0  0  0  0
 22 53  1  0  0  0  0
 22 54  1  0  0  0  0
 23 24  1  0  0  0  0
 23 55  1  0  0  0  0
 23 56  1  0  0  0  0
 24 27  1  0  0  0  0
 24 28  1  0  0  0  0
 24 57  1  0  0  0  0
 25 29  2  0  0  0  0
 25 30  1  0  0  0  0
 26 31  2  0  0  0  0
 26 32  1  0  0  0  0
 27 59  1  0  0  0  0
 27 60  1  0  0  0  0
 27 61  1  0  0  0  0
 28 62  1  0  0  0  0
 28 63  1  0  0  0  0
 28 64  1  0  0  0  0
 29 33  1  0  0  0  0
 29 65  1  0  0  0  0
 30 34  2  0  0  0  0
 30 66  1  0  0  0  0
 31 36  1  0  0  0  0
 31 67  1  0  0  0  0
 32 37  2  0  0  0  0
 32 68  1  0  0  0  0
 33 35  2  0  0  0  0
 33 69  1  0  0  0  0
 34 35  1  0  0  0  0
 34 70  1  0  0  0  0
 35 73  1  0  0  0  0
 36 38  2  0  0  0  0
 36 71  1  0  0  0  0
 37 38  1  0  0  0  0
 37 72  1  0  0  0  0
M  END
> <PUBCHEM_COMPOUND_CID>
213039

> <PUBCHEM_COMPOUND_CANONICALIZED>
1

> <PUBCHEM_CACTVS_COMPLEXITY>
853

> <PUBCHEM_CACTVS_HBOND_ACCEPTOR>
9

> <PUBCHEM_CACTVS_HBOND_DONOR>
3

> <PUBCHEM_CACTVS_ROTATABLE_BOND>
12

> <PUBCHEM_CACTVS_SUBSKEYS>
AAADcfB7OABAAAAAAAAAAAAAAAAAASJAAAAwYAAAAAASAAABQAAAHgQQSAAADTzx2AcyyYLABgKIAiRCWHDCABAgAgAIiJgIZIkbMCKA0ZGuYABllgCeyAfQ4KgOAAQAAAAAAAAACAAAAAAAAAAAAAAAAA==

> <PUBCHEM_IUPAC_OPENEYE_NAME>
[(3aS,4R,6aR)-2,3,3a,4,5,6a-hexahydrofuro[2,3-b]furan-4-yl] N-[(1S,2R)-3-[(4-aminophenyl)sulfonyl-isobutyl-amino]-1-benzyl-2-hydroxy-propyl]carbamate

> <PUBCHEM_IUPAC_CAS_NAME>
N-[(2S,3R)-4-[(4-aminophenyl)sulfonyl-(2-methylpropyl)amino]-3-hydroxy-1-phenylbutan-2-yl]carbamic acid [(3aS,4R,6aR)-2,3,3a,4,5,6a-hexahydrofuro[2,3-b]furan-4-yl] ester

> <PUBCHEM_IUPAC_NAME>
[(3aS,4R,6aR)-2,3,3a,4,5,6a-hexahydrofuro[2,3-b]furan-4-yl] N-[(2S,3R)-4-[(4-aminophenyl)sulfonyl-(2-methylpropyl)amino]-3-hydroxy-1-phenylbutan-2-yl]carbamate

> <PUBCHEM_IUPAC_SYSTEMATIC_NAME>
[(3aS,4R,6aR)-2,3,3a,4,5,6a-hexahydrofuro[2,3-b]furan-4-yl] N-[(2S,3R)-4-[(4-aminophenyl)sulfonyl-(2-methylpropyl)amino]-3-oxidanyl-1-phenyl-butan-2-yl]carbamate

> <PUBCHEM_IUPAC_TRADITIONAL_NAME>
N-[(1S,2R)-1-benzyl-2-hydroxy-3-[isobutyl(sulfanilyl)amino]propyl]carbamic acid [(3aS,4R,6aR)-2,3,3a,4,5,6a-hexahydrofuro[2,3-b]furan-4-yl] ester

> <PUBCHEM_IUPAC_INCHI>
InChI=1S/C27H37N3O7S/c1-18(2)15-30(38(33,34)21-10-8-20(28)9-11-21)16-24(31)23(14-19-6-4-3-5-7-19)29-27(32)37-25-17-36-26-22(25)12-13-35-26/h3-11,18,22-26,31H,12-17,28H2,1-2H3,(H,29,32)/t22-,23-,24+,25-,26+/m0/s1

> <PUBCHEM_IUPAC_INCHIKEY>
CJBJHOAVZSMMDJ-HEXNFIEUSA-N

> <PUBCHEM_XLOGP3_AA>
2.9

> <PUBCHEM_EXACT_MASS>
547.235222

> <PUBCHEM_MOLECULAR_FORMULA>
C27H37N3O7S

> <PUBCHEM_MOLECULAR_WEIGHT>
547.66358

> <PUBCHEM_OPENEYE_CAN_SMILES>
CC(C)CN(CC(C(CC1=CC=CC=C1)NC(=O)OC2COC3C2CCO3)O)S(=O)(=O)C4=CC=C(C=C4)N

> <PUBCHEM_OPENEYE_ISO_SMILES>
CC(C)CN(C[C@H]([C@H](CC1=CC=CC=C1)NC(=O)O[C@H]2CO[C@@H]3[C@H]2CCO3)O)S(=O)(=O)C4=CC=C(C=C4)N

> <PUBCHEM_CACTVS_TPSA>
149

> <PUBCHEM_MONOISOTOPIC_WEIGHT>
547.235222

> <PUBCHEM_TOTAL_CHARGE>
0

> <PUBCHEM_HEAVY_ATOM_COUNT>
38

> <PUBCHEM_ATOM_DEF_STEREO_COUNT>
5

> <PUBCHEM_ATOM_UDEF_STEREO_COUNT>
0

> <PUBCHEM_BOND_DEF_STEREO_COUNT>
0

> <PUBCHEM_BOND_UDEF_STEREO_COUNT>
0

> <PUBCHEM_ISOTOPIC_ATOM_COUNT>
0

> <PUBCHEM_COMPONENT_COUNT>
1

> <PUBCHEM_CACTVS_TAUTO_COUNT>
2

> <PUBCHEM_COORDINATE_TYPE>
1
5
255

> <PUBCHEM_BONDANNOTATIONS>
12  39  5
13  40  5
25  29  8
25  30  8
26  31  8
26  32  8
29  33  8
30  34  8
31  36  8
32  37  8
33  35  8
34  35  8
36  38  8
37  38  8
14  4  6
19  5  6
18  9  5

$$$$
