2133
  -OEChem-12171207532D

 71 76  0     1  0  0  0  0  0999 V2000
    8.1531    1.7638    0.0000 F   0  0  0  0  0  0  0  0  0  0  0  0
    5.0436   -0.9497    0.0000 O   0  0  0  0  0  0  0  0  0  0  0  0
    5.6956   -2.4108    0.0000 O   0  0  0  0  0  0  0  0  0  0  0  0
    7.6291    2.3241    0.0000 O   0  0  0  0  0  0  0  0  0  0  0  0
    5.2601    0.8732    0.0000 O   0  0  0  0  0  0  0  0  0  0  0  0
    3.6654    0.3517    0.0000 O   0  0  0  0  0  0  0  0  0  0  0  0
   12.1030    2.9685    0.0000 O   0  0  0  0  0  0  0  0  0  0  0  0
    2.4205   -0.8525    0.0000 O   0  0  0  0  0  0  0  0  0  0  0  0
    6.7630   -0.1759    0.0000 C   0  0  3  0  0  0  0  0  0  0  0  0
    7.6291   -0.6759    0.0000 C   0  0  3  0  0  0  0  0  0  0  0  0
    6.0260   -0.8430    0.0000 C   0  0  3  0  0  0  0  0  0  0  0  0
    8.4951   -0.1759    0.0000 C   0  0  3  0  0  0  0  0  0  0  0  0
    6.4311   -1.7508    0.0000 C   0  0  3  0  0  0  0  0  0  0  0  0
    8.4951    0.8241    0.0000 C   0  0  3  0  0  0  0  0  0  0  0  0
    7.4198   -1.6477    0.0000 C   0  0  0  0  0  0  0  0  0  0  0  0
    6.7630    0.8241    0.0000 C   0  0  0  0  0  0  0  0  0  0  0  0
    7.6291    1.3241    0.0000 C   0  0  3  0  0  0  0  0  0  0  0  0
    9.3890    1.3587    0.0000 C   0  0  3  0  0  0  0  0  0  0  0  0
    9.3890   -0.7106    0.0000 C   0  0  0  0  0  0  0  0  0  0  0  0
    6.1202    0.5901    0.0000 C   0  0  0  0  0  0  0  0  0  0  0  0
    4.8398   -1.9166    0.0000 C   0  0  0  0  0  0  0  0  0  0  0  0
    5.3307   -0.1243    0.0000 C   0  0  0  0  0  0  0  0  0  0  0  0
   10.2951   -0.1967    0.0000 C   0  0  0  0  0  0  0  0  0  0  0  0
   10.2951    0.8449    0.0000 C   0  0  0  0  0  0  0  0  0  0  0  0
    4.6328   -2.8950    0.0000 C   0  0  0  0  0  0  0  0  0  0  0  0
    3.9734   -1.4174    0.0000 C   0  0  0  0  0  0  0  0  0  0  0  0
    8.7404    2.1198    0.0000 C   0  0  0  0  0  0  0  0  0  0  0  0
    9.3639    2.4434    0.0000 C   0  0  0  0  0  0  0  0  0  0  0  0
    3.6383   -3.0004    0.0000 C   0  0  0  0  0  0  0  0  0  0  0  0
    3.2308   -2.0872    0.0000 C   0  0  0  0  0  0  0  0  0  0  0  0
    4.3606   -0.3670    0.0000 C   0  0  0  0  0  0  0  0  0  0  0  0
   11.2389    1.3801    0.0000 C   0  0  0  0  0  0  0  0  0  0  0  0
   10.2951    3.0004    0.0000 C   0  0  0  0  0  0  0  0  0  0  0  0
   11.2389    2.4651    0.0000 C   0  0  0  0  0  0  0  0  0  0  0  0
    2.6953    0.1090    0.0000 C   0  0  0  0  0  0  0  0  0  0  0  0
    2.0000    0.8277    0.0000 C   0  0  0  0  0  0  0  0  0  0  0  0
    8.1302   -1.0410    0.0000 H   0  0  0  0  0  0  0  0  0  0  0  0
    8.4903   -0.7959    0.0000 H   0  0  0  0  0  0  0  0  0  0  0  0
    6.6826   -2.3175    0.0000 H   0  0  0  0  0  0  0  0  0  0  0  0
    7.4190   -2.2677    0.0000 H   0  0  0  0  0  0  0  0  0  0  0  0
    8.0363   -1.7138    0.0000 H   0  0  0  0  0  0  0  0  0  0  0  0
    6.5510    1.4067    0.0000 H   0  0  0  0  0  0  0  0  0  0  0  0
    6.1524    0.7164    0.0000 H   0  0  0  0  0  0  0  0  0  0  0  0
    8.1660    1.6341    0.0000 H   0  0  0  0  0  0  0  0  0  0  0  0
    8.9844   -1.1804    0.0000 H   0  0  0  0  0  0  0  0  0  0  0  0
    9.7826   -1.1896    0.0000 H   0  0  0  0  0  0  0  0  0  0  0  0
    6.5952    0.9887    0.0000 H   0  0  0  0  0  0  0  0  0  0  0  0
    5.7217    1.0651    0.0000 H   0  0  0  0  0  0  0  0  0  0  0  0
    5.6453    0.1916    0.0000 H   0  0  0  0  0  0  0  0  0  0  0  0
   10.5041   -0.7804    0.0000 H   0  0  0  0  0  0  0  0  0  0  0  0
   10.9059   -0.0906    0.0000 H   0  0  0  0  0  0  0  0  0  0  0  0
    4.6333   -3.5150    0.0000 H   0  0  0  0  0  0  0  0  0  0  0  0
    5.2494   -2.9592    0.0000 H   0  0  0  0  0  0  0  0  0  0  0  0
    4.3374   -0.9155    0.0000 H   0  0  0  0  0  0  0  0  0  0  0  0
    3.5122   -1.0029    0.0000 H   0  0  0  0  0  0  0  0  0  0  0  0
    9.2122    2.5220    0.0000 H   0  0  0  0  0  0  0  0  0  0  0  0
    8.3382    2.5917    0.0000 H   0  0  0  0  0  0  0  0  0  0  0  0
    8.2685    1.7176    0.0000 H   0  0  0  0  0  0  0  0  0  0  0  0
    8.8211    2.7430    0.0000 H   0  0  0  0  0  0  0  0  0  0  0  0
    7.0921    2.6341    0.0000 H   0  0  0  0  0  0  0  0  0  0  0  0
    3.0488   -3.1925    0.0000 H   0  0  0  0  0  0  0  0  0  0  0  0
    3.7678   -3.6067    0.0000 H   0  0  0  0  0  0  0  0  0  0  0  0
    2.8659   -1.5859    0.0000 H   0  0  0  0  0  0  0  0  0  0  0  0
    2.6941   -2.3976    0.0000 H   0  0  0  0  0  0  0  0  0  0  0  0
    3.8469   -0.7142    0.0000 H   0  0  0  0  0  0  0  0  0  0  0  0
    4.6133   -0.9332    0.0000 H   0  0  0  0  0  0  0  0  0  0  0  0
   11.7746    1.0681    0.0000 H   0  0  0  0  0  0  0  0  0  0  0  0
   10.2879    3.6203    0.0000 H   0  0  0  0  0  0  0  0  0  0  0  0
    2.4456    1.2588    0.0000 H   0  0  0  0  0  0  0  0  0  0  0  0
    1.5689    1.2733    0.0000 H   0  0  0  0  0  0  0  0  0  0  0  0
    1.5544    0.3966    0.0000 H   0  0  0  0  0  0  0  0  0  0  0  0
  1 14  1  0  0  0  0
  2 11  1  0  0  0  0
  2 21  1  0  0  0  0
  3 13  1  0  0  0  0
  3 21  1  0  0  0  0
  4 17  1  0  0  0  0
  4 60  1  0  0  0  0
  5 22  2  0  0  0  0
  6 31  1  0  0  0  0
  6 35  1  0  0  0  0
  7 34  2  0  0  0  0
  8 35  2  0  0  0  0
  9 10  1  0  0  0  0
  9 11  1  0  0  0  0
  9 16  1  0  0  0  0
  9 20  1  0  0  0  0
 10 12  1  0  0  0  0
 10 15  1  0  0  0  0
 10 37  1  0  0  0  0
 11 13  1  0  0  0  0
 11 22  1  0  0  0  0
 12 14  1  0  0  0  0
 12 19  1  0  0  0  0
 12 38  1  0  0  0  0
 13 15  1  0  0  0  0
 13 39  1  0  0  0  0
 14 17  1  0  0  0  0
 14 18  1  0  0  0  0
 15 40  1  0  0  0  0
 15 41  1  0  0  0  0
 16 17  1  0  0  0  0
 16 42  1  0  0  0  0
 16 43  1  0  0  0  0
 17 44  1  0  0  0  0
 18 24  1  0  0  0  0
 18 27  1  0  0  0  0
 18 28  1  0  0  0  0
 19 23  1  0  0  0  0
 19 45  1  0  0  0  0
 19 46  1  0  0  0  0
 20 47  1  0  0  0  0
 20 48  1  0  0  0  0
 20 49  1  0  0  0  0
 21 25  1  0  0  0  0
 21 26  1  0  0  0  0
 22 31  1  0  0  0  0
 23 24  1  0  0  0  0
 23 50  1  0  0  0  0
 23 51  1  0  0  0  0
 24 32  2  0  0  0  0
 25 29  1  0  0  0  0
 25 52  1  0  0  0  0
 25 53  1  0  0  0  0
 26 30  1  0  0  0  0
 26 54  1  0  0  0  0
 26 55  1  0  0  0  0
 27 56  1  0  0  0  0
 27 57  1  0  0  0  0
 27 58  1  0  0  0  0
 28 33  2  0  0  0  0
 28 59  1  0  0  0  0
 29 30  1  0  0  0  0
 29 61  1  0  0  0  0
 29 62  1  0  0  0  0
 30 63  1  0  0  0  0
 30 64  1  0  0  0  0
 31 65  1  0  0  0  0
 31 66  1  0  0  0  0
 32 34  1  0  0  0  0
 32 67  1  0  0  0  0
 33 34  1  0  0  0  0
 33 68  1  0  0  0  0
 35 36  1  0  0  0  0
 36 69  1  0  0  0  0
 36 70  1  0  0  0  0
 36 71  1  0  0  0  0
M  END
> <PUBCHEM_COMPOUND_CID>
2133

> <PUBCHEM_COMPOUND_CANONICALIZED>
1

> <PUBCHEM_CACTVS_COMPLEXITY>
1090

> <PUBCHEM_CACTVS_HBOND_ACCEPTOR>
8

> <PUBCHEM_CACTVS_HBOND_DONOR>
1

> <PUBCHEM_CACTVS_ROTATABLE_BOND>
4

> <PUBCHEM_CACTVS_SUBSKEYS>
AAADcfB4OQAAAAAAAAAAAAAAAAAAAaMEAAAwYIAAAAASAGDAAAAAGwAACAAAD1SggAICCAAABgCIAqDSCAIAAAAgAAAICAFAAEgREBYAAQQiQAAFoAAOAYPI7PzPgAAAAAAAAADAAAYAADAAAYAADCAAAA==

> <PUBCHEM_IUPAC_INCHI>
InChI=1S/C28H35FO7/c1-16(30)34-15-22(33)28-23(35-26(36-28)9-4-5-10-26)13-20-19-7-6-17-12-18(31)8-11-24(17,2)27(19,29)21(32)14-25(20,28)3/h8,11-12,19-21,23,32H,4-7,9-10,13-15H2,1-3H3

> <PUBCHEM_IUPAC_INCHIKEY>
ILKJAFIWWBXGDU-UHFFFAOYSA-N

> <PUBCHEM_XLOGP3>
3.6

> <PUBCHEM_EXACT_MASS>
502.236682

> <PUBCHEM_MOLECULAR_FORMULA>
C28H35FO7

> <PUBCHEM_MOLECULAR_WEIGHT>
502.571703

> <PUBCHEM_OPENEYE_CAN_SMILES>
CC(=O)OCC(=O)C12C(CC3C1(CC(C4(C3CCC5=CC(=O)C=CC54C)F)O)C)OC6(O2)CCCC6

> <PUBCHEM_OPENEYE_ISO_SMILES>
CC(=O)OCC(=O)C12C(CC3C1(CC(C4(C3CCC5=CC(=O)C=CC54C)F)O)C)OC6(O2)CCCC6

> <PUBCHEM_CACTVS_TPSA>
99.1

> <PUBCHEM_MONOISOTOPIC_WEIGHT>
502.236682

> <PUBCHEM_TOTAL_CHARGE>
0

> <PUBCHEM_HEAVY_ATOM_COUNT>
36

> <PUBCHEM_ATOM_DEF_STEREO_COUNT>
0

> <PUBCHEM_ATOM_UDEF_STEREO_COUNT>
8

> <PUBCHEM_BOND_DEF_STEREO_COUNT>
0

> <PUBCHEM_BOND_UDEF_STEREO_COUNT>
0

> <PUBCHEM_ISOTOPIC_ATOM_COUNT>
0

> <PUBCHEM_COMPONENT_COUNT>
1

> <PUBCHEM_CACTVS_TAUTO_COUNT>
6

> <PUBCHEM_COORDINATE_TYPE>
1
5
255

> <PUBCHEM_BONDANNOTATIONS>
14  1  3
10  15  3
11  22  3
12  19  3
13  15  3
18  27  3
17  4  3
9  20  3

$$$$
