2156
  -OEChem-12171207542D

 61 63  0     0  0  0  0  0  0999 V2000
    8.2816   -0.9439    0.0000 I   0  0  0  0  0  0  0  0  0  0  0  0
    7.5673    2.4457    0.0000 I   0  0  0  0  0  0  0  0  0  0  0  0
    8.9030    0.9571    0.0000 O   0  0  0  0  0  0  0  0  0  0  0  0
    4.6783   -2.4278    0.0000 O   0  0  0  0  0  0  0  0  0  0  0  0
    4.3211    0.8765    0.0000 O   0  0  0  0  0  0  0  0  0  0  0  0
   10.5028    3.0644    0.0000 N   0  3  0  0  0  0  0  0  0  0  0  0
   10.1921    2.1138    0.0000 C   0  0  0  0  0  0  0  0  0  0  0  0
   10.8134    4.0149    0.0000 C   0  0  0  0  0  0  0  0  0  0  0  0
   11.4533    2.7537    0.0000 C   0  0  0  0  0  0  0  0  0  0  0  0
    9.2136    1.9076    0.0000 C   0  0  0  0  0  0  0  0  0  0  0  0
   11.7920    4.2211    0.0000 C   0  0  0  0  0  0  0  0  0  0  0  0
   11.6595    1.7752    0.0000 C   0  0  0  0  0  0  0  0  0  0  0  0
    6.2619   -1.6230    0.0000 C   0  0  0  0  0  0  0  0  0  0  0  0
    5.2619   -1.6230    0.0000 C   0  0  0  0  0  0  0  0  0  0  0  0
    4.6783   -0.8183    0.0000 C   0  0  0  0  0  0  0  0  0  0  0  0
    6.7619   -2.4891    0.0000 C   0  0  0  0  0  0  0  0  0  0  0  0
    3.7320   -1.1230    0.0000 C   0  0  0  0  0  0  0  0  0  0  0  0
    3.7320   -2.1230    0.0000 C   0  0  0  0  0  0  0  0  0  0  0  0
    6.2619   -3.3551    0.0000 C   0  0  0  0  0  0  0  0  0  0  0  0
    4.9889    0.1322    0.0000 C   0  0  0  0  0  0  0  0  0  0  0  0
    7.9244    0.7509    0.0000 C   0  0  0  0  0  0  0  0  0  0  0  0
    5.9674    0.3384    0.0000 C   0  0  0  0  0  0  0  0  0  0  0  0
    2.8660   -0.6230    0.0000 C   0  0  0  0  0  0  0  0  0  0  0  0
    7.6138   -0.1996    0.0000 C   0  0  0  0  0  0  0  0  0  0  0  0
    7.2566    1.4952    0.0000 C   0  0  0  0  0  0  0  0  0  0  0  0
    2.8660   -2.6230    0.0000 C   0  0  0  0  0  0  0  0  0  0  0  0
    6.6353   -0.4059    0.0000 C   0  0  0  0  0  0  0  0  0  0  0  0
    6.2781    1.2890    0.0000 C   0  0  0  0  0  0  0  0  0  0  0  0
    6.7619   -4.2211    0.0000 C   0  0  0  0  0  0  0  0  0  0  0  0
    2.0000   -1.1230    0.0000 C   0  0  0  0  0  0  0  0  0  0  0  0
    2.0000   -2.1230    0.0000 C   0  0  0  0  0  0  0  0  0  0  0  0
    9.9135    3.2570    0.0000 H   0  0  0  0  0  0  0  0  0  0  0  0
   10.2127    1.4942    0.0000 H   0  0  0  0  0  0  0  0  0  0  0  0
   10.8059    2.0265    0.0000 H   0  0  0  0  0  0  0  0  0  0  0  0
   12.0730    2.7743    0.0000 H   0  0  0  0  0  0  0  0  0  0  0  0
   11.5407    3.3675    0.0000 H   0  0  0  0  0  0  0  0  0  0  0  0
   10.7929    4.6345    0.0000 H   0  0  0  0  0  0  0  0  0  0  0  0
   10.1996    4.1022    0.0000 H   0  0  0  0  0  0  0  0  0  0  0  0
    9.1930    2.5273    0.0000 H   0  0  0  0  0  0  0  0  0  0  0  0
    8.5998    1.9950    0.0000 H   0  0  0  0  0  0  0  0  0  0  0  0
   11.0529    1.6473    0.0000 H   0  0  0  0  0  0  0  0  0  0  0  0
   11.7874    1.1685    0.0000 H   0  0  0  0  0  0  0  0  0  0  0  0
   12.2662    1.9030    0.0000 H   0  0  0  0  0  0  0  0  0  0  0  0
   11.9198    3.6144    0.0000 H   0  0  0  0  0  0  0  0  0  0  0  0
   12.3986    4.3490    0.0000 H   0  0  0  0  0  0  0  0  0  0  0  0
   11.6641    4.8278    0.0000 H   0  0  0  0  0  0  0  0  0  0  0  0
    6.8445   -1.4110    0.0000 H   0  0  0  0  0  0  0  0  0  0  0  0
    6.1542   -1.0124    0.0000 H   0  0  0  0  0  0  0  0  0  0  0  0
    7.2368   -2.8876    0.0000 H   0  0  0  0  0  0  0  0  0  0  0  0
    7.2368   -2.0905    0.0000 H   0  0  0  0  0  0  0  0  0  0  0  0
    5.7869   -2.9566    0.0000 H   0  0  0  0  0  0  0  0  0  0  0  0
    5.7869   -3.7536    0.0000 H   0  0  0  0  0  0  0  0  0  0  0  0
    2.8660   -0.0030    0.0000 H   0  0  0  0  0  0  0  0  0  0  0  0
    2.8660   -3.2430    0.0000 H   0  0  0  0  0  0  0  0  0  0  0  0
    6.4427   -0.9952    0.0000 H   0  0  0  0  0  0  0  0  0  0  0  0
    5.8640    1.7504    0.0000 H   0  0  0  0  0  0  0  0  0  0  0  0
    6.2249   -4.5311    0.0000 H   0  0  0  0  0  0  0  0  0  0  0  0
    7.0719   -4.7580    0.0000 H   0  0  0  0  0  0  0  0  0  0  0  0
    7.2988   -3.9111    0.0000 H   0  0  0  0  0  0  0  0  0  0  0  0
    1.4631   -0.8130    0.0000 H   0  0  0  0  0  0  0  0  0  0  0  0
    1.4631   -2.4330    0.0000 H   0  0  0  0  0  0  0  0  0  0  0  0
  1 24  1  0  0  0  0
  2 25  1  0  0  0  0
  3 10  1  0  0  0  0
  3 21  1  0  0  0  0
  4 14  1  0  0  0  0
  4 18  1  0  0  0  0
  5 20  2  0  0  0  0
  6  7  1  0  0  0  0
  6  8  1  0  0  0  0
  6  9  1  0  0  0  0
  6 32  1  0  0  0  0
  7 10  1  0  0  0  0
  7 33  1  0  0  0  0
  7 34  1  0  0  0  0
  8 11  1  0  0  0  0
  8 37  1  0  0  0  0
  8 38  1  0  0  0  0
  9 12  1  0  0  0  0
  9 35  1  0  0  0  0
  9 36  1  0  0  0  0
 10 39  1  0  0  0  0
 10 40  1  0  0  0  0
 11 44  1  0  0  0  0
 11 45  1  0  0  0  0
 11 46  1  0  0  0  0
 12 41  1  0  0  0  0
 12 42  1  0  0  0  0
 12 43  1  0  0  0  0
 13 14  1  0  0  0  0
 13 16  1  0  0  0  0
 13 47  1  0  0  0  0
 13 48  1  0  0  0  0
 14 15  2  0  0  0  0
 15 17  1  0  0  0  0
 15 20  1  0  0  0  0
 16 19  1  0  0  0  0
 16 49  1  0  0  0  0
 16 50  1  0  0  0  0
 17 18  1  0  0  0  0
 17 23  2  0  0  0  0
 18 26  2  0  0  0  0
 19 29  1  0  0  0  0
 19 51  1  0  0  0  0
 19 52  1  0  0  0  0
 20 22  1  0  0  0  0
 21 24  2  0  0  0  0
 21 25  1  0  0  0  0
 22 27  2  0  0  0  0
 22 28  1  0  0  0  0
 23 30  1  0  0  0  0
 23 53  1  0  0  0  0
 24 27  1  0  0  0  0
 25 28  2  0  0  0  0
 26 31  1  0  0  0  0
 26 54  1  0  0  0  0
 27 55  1  0  0  0  0
 28 56  1  0  0  0  0
 29 57  1  0  0  0  0
 29 58  1  0  0  0  0
 29 59  1  0  0  0  0
 30 31  2  0  0  0  0
 30 60  1  0  0  0  0
 31 61  1  0  0  0  0
M  CHG  1   6   1
M  END
> <PUBCHEM_COMPOUND_CID>
2156

> <PUBCHEM_COMPOUND_CANONICALIZED>
1

> <PUBCHEM_CACTVS_COMPLEXITY>
547

> <PUBCHEM_CACTVS_HBOND_ACCEPTOR>
3

> <PUBCHEM_CACTVS_HBOND_DONOR>
1

> <PUBCHEM_CACTVS_ROTATABLE_BOND>
11

> <PUBCHEM_CACTVS_SUBSKEYS>
AAADceB6MAAAAwAAAAAAAAAAAAAAASAAAAAwYAAAAAAAAEgB9AAAHgAwAAAADATjmAYyBsPABECIAqBSAAACCAAkIAAIiIEOCMgOJjaMNRqDOWCk8BGYqYeLzPDOoAAAAAAIAABAAAAAABAAAAAAAAAAAA==

> <PUBCHEM_IUPAC_OPENEYE_NAME>
2-[4-(2-butylbenzofuran-3-carbonyl)-2,6-diiodo-phenoxy]ethyl-diethyl-ammonium

> <PUBCHEM_IUPAC_CAS_NAME>
2-[4-[(2-butyl-3-benzofuranyl)-oxomethyl]-2,6-diiodophenoxy]ethyl-diethylammonium

> <PUBCHEM_IUPAC_NAME>
2-[4-(2-butyl-1-benzofuran-3-carbonyl)-2,6-diiodophenoxy]ethyl-diethylazanium

> <PUBCHEM_IUPAC_SYSTEMATIC_NAME>
2-[4-[(2-butyl-1-benzofuran-3-yl)carbonyl]-2,6-bis(iodanyl)phenoxy]ethyl-diethyl-azanium

> <PUBCHEM_IUPAC_TRADITIONAL_NAME>
2-[4-(2-butylbenzofuran-3-carbonyl)-2,6-diiodo-phenoxy]ethyl-diethyl-ammonium

> <PUBCHEM_IUPAC_INCHI>
InChI=1S/C25H29I2NO3/c1-4-7-11-22-23(18-10-8-9-12-21(18)31-22)24(29)17-15-19(26)25(20(27)16-17)30-14-13-28(5-2)6-3/h8-10,12,15-16H,4-7,11,13-14H2,1-3H3/p+1

> <PUBCHEM_IUPAC_INCHIKEY>
IYIKLHRQXLHMJQ-UHFFFAOYSA-O

> <PUBCHEM_XLOGP3>
7.6

> <PUBCHEM_EXACT_MASS>
646.031515

> <PUBCHEM_MOLECULAR_FORMULA>
C25H30I2NO3+

> <PUBCHEM_MOLECULAR_WEIGHT>
646.31954

> <PUBCHEM_OPENEYE_CAN_SMILES>
CCCCC1=C(C2=CC=CC=C2O1)C(=O)C3=CC(=C(C(=C3)I)OCC[NH+](CC)CC)I

> <PUBCHEM_OPENEYE_ISO_SMILES>
CCCCC1=C(C2=CC=CC=C2O1)C(=O)C3=CC(=C(C(=C3)I)OCC[NH+](CC)CC)I

> <PUBCHEM_CACTVS_TPSA>
43.9

> <PUBCHEM_MONOISOTOPIC_WEIGHT>
646.031515

> <PUBCHEM_TOTAL_CHARGE>
1

> <PUBCHEM_HEAVY_ATOM_COUNT>
31

> <PUBCHEM_ATOM_DEF_STEREO_COUNT>
0

> <PUBCHEM_ATOM_UDEF_STEREO_COUNT>
0

> <PUBCHEM_BOND_DEF_STEREO_COUNT>
0

> <PUBCHEM_BOND_UDEF_STEREO_COUNT>
0

> <PUBCHEM_ISOTOPIC_ATOM_COUNT>
0

> <PUBCHEM_COMPONENT_COUNT>
1

> <PUBCHEM_CACTVS_TAUTO_COUNT>
1

> <PUBCHEM_COORDINATE_TYPE>
1
5
255

> <PUBCHEM_BONDANNOTATIONS>
14  15  8
15  17  8
17  18  8
17  23  8
18  26  8
21  24  8
21  25  8
22  27  8
22  28  8
23  30  8
24  27  8
25  28  8
26  31  8
30  31  8
4  14  8
4  18  8

$$$$
