2173
  -OEChem-12171207542D

 42 44  0     1  0  0  0  0  0999 V2000
    9.2365    0.5261    0.0000 S   0  0  0  0  0  0  0  0  0  0  0  0
    6.5715   -1.4957    0.0000 O   0  0  0  0  0  0  0  0  0  0  0  0
    8.8764   -2.7862    0.0000 O   0  5  0  0  0  0  0  0  0  0  0  0
   10.5236   -2.2509    0.0000 O   0  0  0  0  0  0  0  0  0  0  0  0
    5.3442   -0.2925    0.0000 O   0  0  0  0  0  0  0  0  0  0  0  0
    8.2854   -0.7830    0.0000 N   0  0  0  0  0  0  0  0  0  0  0  0
    6.5715    0.9297    0.0000 N   0  0  0  0  0  0  0  0  0  0  0  0
    5.1602    2.3469    0.0000 N   0  0  0  0  0  0  0  0  0  0  0  0
    8.2854    0.2170    0.0000 C   0  0  3  0  0  0  0  0  0  0  0  0
    9.8242   -0.2830    0.0000 C   0  0  0  0  0  0  0  0  0  0  0  0
    9.2365   -1.0920    0.0000 C   0  0  3  0  0  0  0  0  0  0  0  0
    7.2771    0.2212    0.0000 C   0  0  3  0  0  0  0  0  0  0  0  0
    7.2771   -0.7871    0.0000 C   0  0  0  0  0  0  0  0  0  0  0  0
   10.6333    0.3048    0.0000 C   0  0  0  0  0  0  0  0  0  0  0  0
   10.6333   -0.8707    0.0000 C   0  0  0  0  0  0  0  0  0  0  0  0
    9.5455   -2.0430    0.0000 C   0  0  0  0  0  0  0  0  0  0  0  0
    5.6050    0.6729    0.0000 C   0  0  0  0  0  0  0  0  0  0  0  0
    4.8994    1.3815    0.0000 C   0  0  3  0  0  0  0  0  0  0  0  0
    3.9329    1.1246    0.0000 C   0  0  0  0  0  0  0  0  0  0  0  0
    3.2273    1.8332    0.0000 C   0  0  0  0  0  0  0  0  0  0  0  0
    3.6721    0.1592    0.0000 C   0  0  0  0  0  0  0  0  0  0  0  0
    2.2608    1.5764    0.0000 C   0  0  0  0  0  0  0  0  0  0  0  0
    2.7056   -0.0976    0.0000 C   0  0  0  0  0  0  0  0  0  0  0  0
    2.0000    0.6110    0.0000 C   0  0  0  0  0  0  0  0  0  0  0  0
    8.1542    1.0568    0.0000 H   0  0  0  0  0  0  0  0  0  0  0  0
    8.6354   -1.6930    0.0000 H   0  0  0  0  0  0  0  0  0  0  0  0
    6.4915   -0.1033    0.0000 H   0  0  0  0  0  0  0  0  0  0  0  0
   10.9977   -0.1968    0.0000 H   0  0  0  0  0  0  0  0  0  0  0  0
   11.1349    0.6693    0.0000 H   0  0  0  0  0  0  0  0  0  0  0  0
   10.2688    0.8064    0.0000 H   0  0  0  0  0  0  0  0  0  0  0  0
   10.2688   -1.3723    0.0000 H   0  0  0  0  0  0  0  0  0  0  0  0
   11.1349   -1.2352    0.0000 H   0  0  0  0  0  0  0  0  0  0  0  0
   10.9977   -0.3691    0.0000 H   0  0  0  0  0  0  0  0  0  0  0  0
    6.7332    1.5283    0.0000 H   0  0  0  0  0  0  0  0  0  0  0  0
    4.2996    1.9838    0.0000 H   0  0  0  0  0  0  0  0  0  0  0  0
    4.7227    2.7862    0.0000 H   0  0  0  0  0  0  0  0  0  0  0  0
    5.7594    2.5061    0.0000 H   0  0  0  0  0  0  0  0  0  0  0  0
    3.3890    2.4317    0.0000 H   0  0  0  0  0  0  0  0  0  0  0  0
    4.1096   -0.2801    0.0000 H   0  0  0  0  0  0  0  0  0  0  0  0
    1.8233    2.0157    0.0000 H   0  0  0  0  0  0  0  0  0  0  0  0
    2.5440   -0.6961    0.0000 H   0  0  0  0  0  0  0  0  0  0  0  0
    1.4008    0.4517    0.0000 H   0  0  0  0  0  0  0  0  0  0  0  0
  1  9  1  0  0  0  0
  1 10  1  0  0  0  0
  2 13  2  0  0  0  0
  3 16  1  0  0  0  0
  4 16  2  0  0  0  0
  5 17  2  0  0  0  0
  6  9  1  0  0  0  0
  6 11  1  0  0  0  0
  6 13  1  0  0  0  0
  7 12  1  0  0  0  0
  7 17  1  0  0  0  0
  7 34  1  0  0  0  0
  8 18  1  0  0  0  0
  8 36  1  0  0  0  0
  8 37  1  0  0  0  0
  9 12  1  0  0  0  0
  9 25  1  0  0  0  0
 10 11  1  0  0  0  0
 10 14  1  0  0  0  0
 10 15  1  0  0  0  0
 11 16  1  0  0  0  0
 11 26  1  0  0  0  0
 12 13  1  0  0  0  0
 12 27  1  0  0  0  0
 14 28  1  0  0  0  0
 14 29  1  0  0  0  0
 14 30  1  0  0  0  0
 15 31  1  0  0  0  0
 15 32  1  0  0  0  0
 15 33  1  0  0  0  0
 17 18  1  0  0  0  0
 18 19  1  0  0  0  0
 18 35  1  0  0  0  0
 19 20  2  0  0  0  0
 19 21  1  0  0  0  0
 20 22  1  0  0  0  0
 20 38  1  0  0  0  0
 21 23  2  0  0  0  0
 21 39  1  0  0  0  0
 22 24  2  0  0  0  0
 22 40  1  0  0  0  0
 23 24  1  0  0  0  0
 23 41  1  0  0  0  0
 24 42  1  0  0  0  0
M  CHG  1   3  -1
M  END
> <PUBCHEM_COMPOUND_CID>
2173

> <PUBCHEM_COMPOUND_CANONICALIZED>
1

> <PUBCHEM_CACTVS_COMPLEXITY>
556

> <PUBCHEM_CACTVS_HBOND_ACCEPTOR>
6

> <PUBCHEM_CACTVS_HBOND_DONOR>
2

> <PUBCHEM_CACTVS_ROTATABLE_BOND>
3

> <PUBCHEM_CACTVS_SUBSKEYS>
AAADceB7OABAAAAAAAAAAAAAAABYAWAAAAAwAAAABYAAAAABAAAAHgQQAAAADCjF2ASyCIPAAAiIAiHSGACCAABgABAIiIGIBIgKYDqglTGUIABklgC4iAcYiICOAAAAAAAAAAAAAAAAAAAAAAAAAAAAAA==

> <PUBCHEM_IUPAC_OPENEYE_NAME>
6-[(2-amino-2-phenyl-acetyl)amino]-3,3-dimethyl-7-oxo-4-thia-1-azabicyclo[3.2.0]heptane-2-carboxylate

> <PUBCHEM_IUPAC_CAS_NAME>
6-[(2-amino-1-oxo-2-phenylethyl)amino]-3,3-dimethyl-7-oxo-4-thia-1-azabicyclo[3.2.0]heptane-2-carboxylate

> <PUBCHEM_IUPAC_NAME>
6-[(2-amino-2-phenylacetyl)amino]-3,3-dimethyl-7-oxo-4-thia-1-azabicyclo[3.2.0]heptane-2-carboxylate

> <PUBCHEM_IUPAC_SYSTEMATIC_NAME>
6-[(2-azanyl-2-phenyl-ethanoyl)amino]-3,3-dimethyl-7-oxidanylidene-4-thia-1-azabicyclo[3.2.0]heptane-2-carboxylate

> <PUBCHEM_IUPAC_TRADITIONAL_NAME>
6-[(2-amino-2-phenyl-acetyl)amino]-7-keto-3,3-dimethyl-4-thia-1-azabicyclo[3.2.0]heptane-2-carboxylate

> <PUBCHEM_IUPAC_INCHI>
InChI=1S/C16H19N3O4S/c1-16(2)11(15(22)23)19-13(21)10(14(19)24-16)18-12(20)9(17)8-6-4-3-5-7-8/h3-7,9-11,14H,17H2,1-2H3,(H,18,20)(H,22,23)/p-1

> <PUBCHEM_IUPAC_INCHIKEY>
AVKUERGKIZMTKX-UHFFFAOYSA-M

> <PUBCHEM_XLOGP3>
-0.5

> <PUBCHEM_EXACT_MASS>
348.101802

> <PUBCHEM_MOLECULAR_FORMULA>
C16H18N3O4S-

> <PUBCHEM_MOLECULAR_WEIGHT>
348.39682

> <PUBCHEM_OPENEYE_CAN_SMILES>
CC1(C(N2C(S1)C(C2=O)NC(=O)C(C3=CC=CC=C3)N)C(=O)[O-])C

> <PUBCHEM_OPENEYE_ISO_SMILES>
CC1(C(N2C(S1)C(C2=O)NC(=O)C(C3=CC=CC=C3)N)C(=O)[O-])C

> <PUBCHEM_CACTVS_TPSA>
141

> <PUBCHEM_MONOISOTOPIC_WEIGHT>
348.101802

> <PUBCHEM_TOTAL_CHARGE>
-1

> <PUBCHEM_HEAVY_ATOM_COUNT>
24

> <PUBCHEM_ATOM_DEF_STEREO_COUNT>
0

> <PUBCHEM_ATOM_UDEF_STEREO_COUNT>
4

> <PUBCHEM_BOND_DEF_STEREO_COUNT>
0

> <PUBCHEM_BOND_UDEF_STEREO_COUNT>
0

> <PUBCHEM_ISOTOPIC_ATOM_COUNT>
0

> <PUBCHEM_COMPONENT_COUNT>
1

> <PUBCHEM_CACTVS_TAUTO_COUNT>
4

> <PUBCHEM_COORDINATE_TYPE>
1
5
255

> <PUBCHEM_BONDANNOTATIONS>
11  26  3
12  27  3
18  35  3
19  20  8
19  21  8
20  22  8
21  23  8
22  24  8
23  24  8
9  25  3

$$$$
