24011
  -OEChem-12171208172D

  2  1  0     0  0  0  0  0  0999 V2000
    2.0000    0.0000    0.0000 Se  0  0  0  0  0  0  0  0  0  0  0  0
    3.0000    0.0000    0.0000 S   0  0  0  0  0  0  0  0  0  0  0  0
  1  2  2  0  0  0  0
M  END
> <PUBCHEM_COMPOUND_CID>
24011

> <PUBCHEM_COMPOUND_CANONICALIZED>
1

> <PUBCHEM_CACTVS_COMPLEXITY>
2

> <PUBCHEM_CACTVS_HBOND_ACCEPTOR>
1

> <PUBCHEM_CACTVS_HBOND_DONOR>
0

> <PUBCHEM_CACTVS_ROTATABLE_BOND>
0

> <PUBCHEM_CACTVS_SUBSKEYS>
AAADcQAAAABAAAAAIAAAAAAAAAAAAAAAAAAAAAAAAAAAAAAAAAAAAAAAAAAAAAAAAAAAAAAAAAAAAAAAAAAAAAAAAAAAAAAAAAAAAAAAAAAAAAAAAAAAAAAAAAAAAAAAAAAAAAAAAAAAAAAAAAAAAAAAAA==

> <PUBCHEM_IUPAC_INCHI>
InChI=1S/SSe/c1-2

> <PUBCHEM_IUPAC_INCHIKEY>
VIDTVPHHDGRGAF-UHFFFAOYSA-N

> <PUBCHEM_EXACT_MASS>
111.888592

> <PUBCHEM_MOLECULAR_FORMULA>
SSe

> <PUBCHEM_MOLECULAR_WEIGHT>
111.025

> <PUBCHEM_OPENEYE_CAN_SMILES>
S=[Se]

> <PUBCHEM_OPENEYE_ISO_SMILES>
S=[Se]

> <PUBCHEM_CACTVS_TPSA>
32.1

> <PUBCHEM_MONOISOTOPIC_WEIGHT>
111.888592

> <PUBCHEM_TOTAL_CHARGE>
0

> <PUBCHEM_HEAVY_ATOM_COUNT>
2

> <PUBCHEM_ATOM_DEF_STEREO_COUNT>
0

> <PUBCHEM_ATOM_UDEF_STEREO_COUNT>
0

> <PUBCHEM_BOND_DEF_STEREO_COUNT>
0

> <PUBCHEM_BOND_UDEF_STEREO_COUNT>
0

> <PUBCHEM_ISOTOPIC_ATOM_COUNT>
0

> <PUBCHEM_COMPONENT_COUNT>
1

> <PUBCHEM_CACTVS_TAUTO_COUNT>
1

> <PUBCHEM_COORDINATE_TYPE>
1
5
255

$$$$
