25419
  -OEChem-12171208172D

 15 14  0     0  0  0  0  0  0999 V2000
    3.4860    0.7245    0.0000 Cl  0  0  0  0  0  0  0  0  0  0  0  0
    4.4860   -1.0075    0.0000 Cl  0  0  0  0  0  0  0  0  0  0  0  0
    4.8520    0.3585    0.0000 P   0  0  0  0  0  0  0  0  0  0  0  0
    3.1200   -0.6415    0.0000 P   0  0  0  0  0  0  0  0  0  0  0  0
    5.7181    0.8585    0.0000 O   0  0  0  0  0  0  0  0  0  0  0  0
    4.3520    1.2245    0.0000 O   0  0  0  0  0  0  0  0  0  0  0  0
    2.2540   -1.1415    0.0000 O   0  0  0  0  0  0  0  0  0  0  0  0
    2.6200    0.2245    0.0000 O   0  0  0  0  0  0  0  0  0  0  0  0
    5.3520   -0.5075    0.0000 O   0  0  0  0  0  0  0  0  0  0  0  0
    3.6200   -1.5075    0.0000 O   0  0  0  0  0  0  0  0  0  0  0  0
    3.9860   -0.1415    0.0000 C   0  0  0  0  0  0  0  0  0  0  0  0
    6.2550    0.5485    0.0000 H   0  0  0  0  0  0  0  0  0  0  0  0
    4.6620    1.7615    0.0000 H   0  0  0  0  0  0  0  0  0  0  0  0
    2.2540   -1.7615    0.0000 H   0  0  0  0  0  0  0  0  0  0  0  0
    2.0000    0.2245    0.0000 H   0  0  0  0  0  0  0  0  0  0  0  0
  1 11  1  0  0  0  0
  2 11  1  0  0  0  0
  3  5  1  0  0  0  0
  3  6  1  0  0  0  0
  3  9  2  0  0  0  0
  3 11  1  0  0  0  0
  4  7  1  0  0  0  0
  4  8  1  0  0  0  0
  4 10  2  0  0  0  0
  4 11  1  0  0  0  0
  5 12  1  0  0  0  0
  6 13  1  0  0  0  0
  7 14  1  0  0  0  0
  8 15  1  0  0  0  0
M  END
> <PUBCHEM_COMPOUND_CID>
25419

> <PUBCHEM_COMPOUND_CANONICALIZED>
1

> <PUBCHEM_CACTVS_COMPLEXITY>
211

> <PUBCHEM_CACTVS_HBOND_ACCEPTOR>
6

> <PUBCHEM_CACTVS_HBOND_DONOR>
4

> <PUBCHEM_CACTVS_ROTATABLE_BOND>
2

> <PUBCHEM_CACTVS_SUBSKEYS>
AAADcYAAOAMGAAAAAAAAAAAAAAAAAAAAAAAAAAAAAAAAAAAAAAAAAAoACCAAAAAAAIAAAAAAABAAQAAAAIAAAAAAAAAAAAAAAAAAAAAAAAAAAAAAAAAAAAAAAAAAAAAAAAAAAAAAAAAAAAAAAAAAAAAAAA==

> <PUBCHEM_IUPAC_OPENEYE_NAME>
[dichloro(phosphono)methyl]phosphonic acid

> <PUBCHEM_IUPAC_CAS_NAME>
[dichloro(phosphono)methyl]phosphonic acid

> <PUBCHEM_IUPAC_NAME>
[dichloro(phosphono)methyl]phosphonic acid

> <PUBCHEM_IUPAC_SYSTEMATIC_NAME>
[bis(chloranyl)-phosphono-methyl]phosphonic acid

> <PUBCHEM_IUPAC_TRADITIONAL_NAME>
[dichloro(phosphono)methyl]phosphonic acid

> <PUBCHEM_IUPAC_INCHI>
InChI=1S/CH4Cl2O6P2/c2-1(3,10(4,5)6)11(7,8)9/h(H2,4,5,6)(H2,7,8,9)

> <PUBCHEM_IUPAC_INCHIKEY>
ACSIXWWBWUQEHA-UHFFFAOYSA-N

> <PUBCHEM_XLOGP3_AA>
-2.1

> <PUBCHEM_EXACT_MASS>
243.886016

> <PUBCHEM_MOLECULAR_FORMULA>
CH4Cl2O6P2

> <PUBCHEM_MOLECULAR_WEIGHT>
244.892384

> <PUBCHEM_OPENEYE_CAN_SMILES>
C(P(=O)(O)O)(P(=O)(O)O)(Cl)Cl

> <PUBCHEM_OPENEYE_ISO_SMILES>
C(P(=O)(O)O)(P(=O)(O)O)(Cl)Cl

> <PUBCHEM_CACTVS_TPSA>
115

> <PUBCHEM_MONOISOTOPIC_WEIGHT>
243.886016

> <PUBCHEM_TOTAL_CHARGE>
0

> <PUBCHEM_HEAVY_ATOM_COUNT>
11

> <PUBCHEM_ATOM_DEF_STEREO_COUNT>
0

> <PUBCHEM_ATOM_UDEF_STEREO_COUNT>
0

> <PUBCHEM_BOND_DEF_STEREO_COUNT>
0

> <PUBCHEM_BOND_UDEF_STEREO_COUNT>
0

> <PUBCHEM_ISOTOPIC_ATOM_COUNT>
0

> <PUBCHEM_COMPONENT_COUNT>
1

> <PUBCHEM_CACTVS_TAUTO_COUNT>
1

> <PUBCHEM_COORDINATE_TYPE>
1
5
255

$$$$
