2575
  -OEChem-12171207562D

 61 65  0     1  0  0  0  0  0999 V2000
    2.8336    1.1188    0.0000 S   0  0  0  0  0  0  0  0  0  0  0  0
    6.1485    0.6708    0.0000 O   0  0  0  0  0  0  0  0  0  0  0  0
    3.8812    3.9948    0.0000 O   0  0  0  0  0  0  0  0  0  0  0  0
    5.4260    3.2116    0.0000 O   0  0  0  0  0  0  0  0  0  0  0  0
    6.1691   -1.0478    0.0000 O   0  0  0  0  0  0  0  0  0  0  0  0
    7.0351   -2.5478    0.0000 O   0  0  0  0  0  0  0  0  0  0  0  0
    6.1691   -4.0478    0.0000 O   0  0  0  0  0  0  0  0  0  0  0  0
    4.4312    1.3752    0.0000 N   0  0  0  0  0  0  0  0  0  0  0  0
    4.4370   -1.0478    0.0000 N   0  0  0  0  0  0  0  0  0  0  0  0
    3.7255    0.6667    0.0000 C   0  0  3  0  0  0  0  0  0  0  0  0
    2.9880    2.1068    0.0000 C   0  0  0  0  0  0  0  0  0  0  0  0
    3.9754    2.2653    0.0000 C   0  0  3  0  0  0  0  0  0  0  0  0
    4.4370   -0.0478    0.0000 C   0  0  3  0  0  0  0  0  0  0  0  0
    5.1485    0.6667    0.0000 C   0  0  0  0  0  0  0  0  0  0  0  0
    2.0000    2.2612    0.0000 C   0  0  0  0  0  0  0  0  0  0  0  0
    2.8295    3.0942    0.0000 C   0  0  0  0  0  0  0  0  0  0  0  0
    4.4275    3.1572    0.0000 C   0  0  0  0  0  0  0  0  0  0  0  0
    5.3031   -1.5478    0.0000 C   0  0  0  0  0  0  0  0  0  0  0  0
    5.3031   -2.5478    0.0000 C   0  0  3  0  0  0  0  0  0  0  0  0
    4.4370   -3.0478    0.0000 C   0  0  0  0  0  0  0  0  0  0  0  0
    6.1691   -3.0478    0.0000 C   0  0  0  0  0  0  0  0  0  0  0  0
   11.1630   -3.5478    0.0000 C   0  0  0  0  0  0  0  0  0  0  0  0
   10.5794   -2.7430    0.0000 C   0  0  0  0  0  0  0  0  0  0  0  0
   10.5794   -4.3525    0.0000 C   0  0  0  0  0  0  0  0  0  0  0  0
    9.6332   -3.0478    0.0000 C   0  0  0  0  0  0  0  0  0  0  0  0
    9.6332   -4.0478    0.0000 C   0  0  0  0  0  0  0  0  0  0  0  0
    8.7672   -2.5478    0.0000 C   0  0  0  0  0  0  0  0  0  0  0  0
    7.9011   -3.0478    0.0000 C   0  0  0  0  0  0  0  0  0  0  0  0
    3.5710   -2.5478    0.0000 C   0  0  0  0  0  0  0  0  0  0  0  0
    4.4370   -4.0478    0.0000 C   0  0  0  0  0  0  0  0  0  0  0  0
    8.7672   -4.5478    0.0000 C   0  0  0  0  0  0  0  0  0  0  0  0
    7.9011   -4.0478    0.0000 C   0  0  0  0  0  0  0  0  0  0  0  0
    2.7050   -3.0478    0.0000 C   0  0  0  0  0  0  0  0  0  0  0  0
    3.5710   -4.5478    0.0000 C   0  0  0  0  0  0  0  0  0  0  0  0
    2.7050   -4.0478    0.0000 C   0  0  0  0  0  0  0  0  0  0  0  0
    3.2259   -0.0210    0.0000 H   0  0  0  0  0  0  0  0  0  0  0  0
    4.8254    2.2670    0.0000 H   0  0  0  0  0  0  0  0  0  0  0  0
    5.2227   -0.3722    0.0000 H   0  0  0  0  0  0  0  0  0  0  0  0
    2.0957    2.8738    0.0000 H   0  0  0  0  0  0  0  0  0  0  0  0
    1.3874    2.3570    0.0000 H   0  0  0  0  0  0  0  0  0  0  0  0
    1.9043    1.6487    0.0000 H   0  0  0  0  0  0  0  0  0  0  0  0
    3.4417    3.1924    0.0000 H   0  0  0  0  0  0  0  0  0  0  0  0
    2.7313    3.7064    0.0000 H   0  0  0  0  0  0  0  0  0  0  0  0
    2.2174    2.9959    0.0000 H   0  0  0  0  0  0  0  0  0  0  0  0
    3.9001   -1.3578    0.0000 H   0  0  0  0  0  0  0  0  0  0  0  0
    6.0392   -2.1228    0.0000 H   0  0  0  0  0  0  0  0  0  0  0  0
    4.1615    4.5478    0.0000 H   0  0  0  0  0  0  0  0  0  0  0  0
   11.6239   -3.9625    0.0000 H   0  0  0  0  0  0  0  0  0  0  0  0
   11.6239   -3.1330    0.0000 H   0  0  0  0  0  0  0  0  0  0  0  0
   11.1168   -2.4338    0.0000 H   0  0  0  0  0  0  0  0  0  0  0  0
   10.3284   -2.1761    0.0000 H   0  0  0  0  0  0  0  0  0  0  0  0
   10.3284   -4.9194    0.0000 H   0  0  0  0  0  0  0  0  0  0  0  0
   11.1168   -4.6617    0.0000 H   0  0  0  0  0  0  0  0  0  0  0  0
    8.7672   -1.9278    0.0000 H   0  0  0  0  0  0  0  0  0  0  0  0
    3.5710   -1.9278    0.0000 H   0  0  0  0  0  0  0  0  0  0  0  0
    4.9740   -4.3578    0.0000 H   0  0  0  0  0  0  0  0  0  0  0  0
    8.7672   -5.1678    0.0000 H   0  0  0  0  0  0  0  0  0  0  0  0
    7.3642   -4.3578    0.0000 H   0  0  0  0  0  0  0  0  0  0  0  0
    2.1681   -2.7378    0.0000 H   0  0  0  0  0  0  0  0  0  0  0  0
    3.5710   -5.1678    0.0000 H   0  0  0  0  0  0  0  0  0  0  0  0
    2.1681   -4.3578    0.0000 H   0  0  0  0  0  0  0  0  0  0  0  0
  1 10  1  0  0  0  0
  1 11  1  0  0  0  0
  2 14  2  0  0  0  0
  3 17  1  0  0  0  0
  3 47  1  0  0  0  0
  4 17  2  0  0  0  0
  5 18  2  0  0  0  0
  6 21  1  0  0  0  0
  6 28  1  0  0  0  0
  7 21  2  0  0  0  0
  8 10  1  0  0  0  0
  8 12  1  0  0  0  0
  8 14  1  0  0  0  0
  9 13  1  0  0  0  0
  9 18  1  0  0  0  0
  9 45  1  0  0  0  0
 10 13  1  0  0  0  0
 10 36  1  0  0  0  0
 11 12  1  0  0  0  0
 11 15  1  0  0  0  0
 11 16  1  0  0  0  0
 12 17  1  0  0  0  0
 12 37  1  0  0  0  0
 13 14  1  0  0  0  0
 13 38  1  0  0  0  0
 15 39  1  0  0  0  0
 15 40  1  0  0  0  0
 15 41  1  0  0  0  0
 16 42  1  0  0  0  0
 16 43  1  0  0  0  0
 16 44  1  0  0  0  0
 18 19  1  0  0  0  0
 19 20  1  0  0  0  0
 19 21  1  0  0  0  0
 19 46  1  0  0  0  0
 20 29  2  0  0  0  0
 20 30  1  0  0  0  0
 22 23  1  0  0  0  0
 22 24  1  0  0  0  0
 22 48  1  0  0  0  0
 22 49  1  0  0  0  0
 23 25  1  0  0  0  0
 23 50  1  0  0  0  0
 23 51  1  0  0  0  0
 24 26  1  0  0  0  0
 24 52  1  0  0  0  0
 24 53  1  0  0  0  0
 25 26  2  0  0  0  0
 25 27  1  0  0  0  0
 26 31  1  0  0  0  0
 27 28  2  0  0  0  0
 27 54  1  0  0  0  0
 28 32  1  0  0  0  0
 29 33  1  0  0  0  0
 29 55  1  0  0  0  0
 30 34  2  0  0  0  0
 30 56  1  0  0  0  0
 31 32  2  0  0  0  0
 31 57  1  0  0  0  0
 32 58  1  0  0  0  0
 33 35  2  0  0  0  0
 33 59  1  0  0  0  0
 34 35  1  0  0  0  0
 34 60  1  0  0  0  0
 35 61  1  0  0  0  0
M  END
> <PUBCHEM_COMPOUND_CID>
2575

> <PUBCHEM_COMPOUND_CANONICALIZED>
1

> <PUBCHEM_CACTVS_COMPLEXITY>
887

> <PUBCHEM_CACTVS_HBOND_ACCEPTOR>
7

> <PUBCHEM_CACTVS_HBOND_DONOR>
2

> <PUBCHEM_CACTVS_ROTATABLE_BOND>
7

> <PUBCHEM_CACTVS_SUBSKEYS>
AAADceB7OABAAAAAAAAAAAAAAABYAeIAAAAwYAAABYAAAGABQAAAHgQQCAAADSzF2ASyDoPABgiIAiHSGAACCABgIBAIiIGOCIgOZj6stTuWeiCm9hG4qAeYyPCOoAABAAAQAABAAAIAACAAAAAACAAAAA==

> <PUBCHEM_IUPAC_OPENEYE_NAME>
6-[(3-indan-5-yloxy-3-oxo-2-phenyl-propanoyl)amino]-3,3-dimethyl-7-oxo-4-thia-1-azabicyclo[3.2.0]heptane-2-carboxylic acid

> <PUBCHEM_IUPAC_CAS_NAME>
6-[[3-(2,3-dihydro-1H-inden-5-yloxy)-1,3-dioxo-2-phenylpropyl]amino]-3,3-dimethyl-7-oxo-4-thia-1-azabicyclo[3.2.0]heptane-2-carboxylic acid

> <PUBCHEM_IUPAC_NAME>
6-[[3-(2,3-dihydro-1H-inden-5-yloxy)-3-oxo-2-phenylpropanoyl]amino]-3,3-dimethyl-7-oxo-4-thia-1-azabicyclo[3.2.0]heptane-2-carboxylic acid

> <PUBCHEM_IUPAC_SYSTEMATIC_NAME>
6-[[3-(2,3-dihydro-1H-inden-5-yloxy)-3-oxidanylidene-2-phenyl-propanoyl]amino]-3,3-dimethyl-7-oxidanylidene-4-thia-1-azabicyclo[3.2.0]heptane-2-carboxylic acid

> <PUBCHEM_IUPAC_TRADITIONAL_NAME>
6-[(3-indan-5-yloxy-3-keto-2-phenyl-propanoyl)amino]-7-keto-3,3-dimethyl-4-thia-1-azabicyclo[3.2.0]heptane-2-carboxylic acid

> <PUBCHEM_IUPAC_INCHI>
InChI=1S/C26H26N2O6S/c1-26(2)20(24(31)32)28-22(30)19(23(28)35-26)27-21(29)18(15-7-4-3-5-8-15)25(33)34-17-12-11-14-9-6-10-16(14)13-17/h3-5,7-8,11-13,18-20,23H,6,9-10H2,1-2H3,(H,27,29)(H,31,32)

> <PUBCHEM_IUPAC_INCHIKEY>
JIRBAUWICKGBFE-UHFFFAOYSA-N

> <PUBCHEM_XLOGP3>
3.8

> <PUBCHEM_EXACT_MASS>
494.151158

> <PUBCHEM_MOLECULAR_FORMULA>
C26H26N2O6S

> <PUBCHEM_MOLECULAR_WEIGHT>
494.55944

> <PUBCHEM_OPENEYE_CAN_SMILES>
CC1(C(N2C(S1)C(C2=O)NC(=O)C(C3=CC=CC=C3)C(=O)OC4=CC5=C(CCC5)C=C4)C(=O)O)C

> <PUBCHEM_OPENEYE_ISO_SMILES>
CC1(C(N2C(S1)C(C2=O)NC(=O)C(C3=CC=CC=C3)C(=O)OC4=CC5=C(CCC5)C=C4)C(=O)O)C

> <PUBCHEM_CACTVS_TPSA>
138

> <PUBCHEM_MONOISOTOPIC_WEIGHT>
494.151158

> <PUBCHEM_TOTAL_CHARGE>
0

> <PUBCHEM_HEAVY_ATOM_COUNT>
35

> <PUBCHEM_ATOM_DEF_STEREO_COUNT>
0

> <PUBCHEM_ATOM_UDEF_STEREO_COUNT>
4

> <PUBCHEM_BOND_DEF_STEREO_COUNT>
0

> <PUBCHEM_BOND_UDEF_STEREO_COUNT>
0

> <PUBCHEM_ISOTOPIC_ATOM_COUNT>
0

> <PUBCHEM_COMPONENT_COUNT>
1

> <PUBCHEM_CACTVS_TAUTO_COUNT>
4

> <PUBCHEM_COORDINATE_TYPE>
1
5
255

> <PUBCHEM_BONDANNOTATIONS>
10  36  3
12  37  3
13  38  3
19  46  3
20  29  8
20  30  8
25  26  8
25  27  8
26  31  8
27  28  8
28  32  8
29  33  8
30  34  8
31  32  8
33  35  8
34  35  8

$$$$
