2617
  -OEChem-12171207562D

 42 45  0     1  0  0  0  0  0999 V2000
    8.0413   -1.2307    0.0000 S   0  0  0  0  0  0  0  0  0  0  0  0
    5.4432    0.2693    0.0000 S   0  0  0  0  0  0  0  0  0  0  0  0
    3.6636    0.3625    0.0000 S   0  0  0  0  0  0  0  0  0  0  0  0
   10.6213    0.9820    0.0000 O   0  0  0  0  0  0  0  0  0  0  0  0
   11.8485   -0.2212    0.0000 O   0  0  0  0  0  0  0  0  0  0  0  0
    7.1753    2.2693    0.0000 O   0  5  0  0  0  0  0  0  0  0  0  0
    8.9073    2.2693    0.0000 O   0  0  0  0  0  0  0  0  0  0  0  0
    8.9073    0.2693    0.0000 N   0  0  0  0  0  0  0  0  0  0  0  0
   10.6213   -1.4434    0.0000 N   0  0  0  0  0  0  0  0  0  0  0  0
   13.2598   -1.6383    0.0000 N   0  0  0  0  0  0  0  0  0  0  0  0
   14.0357   -2.2693    0.0000 N   0  0  0  0  0  0  0  0  0  0  0  0
    4.4727    1.7638    0.0000 N   0  0  0  0  0  0  0  0  0  0  0  0
   14.6186   -0.7599    0.0000 N   0  0  0  0  0  0  0  0  0  0  0  0
   14.8755   -1.7263    0.0000 N   0  0  0  0  0  0  0  0  0  0  0  0
    3.4945    1.9717    0.0000 N   0  0  0  0  0  0  0  0  0  0  0  0
    8.9073   -0.7307    0.0000 C   0  0  3  0  0  0  0  0  0  0  0  0
    9.9156   -0.7349    0.0000 C   0  0  3  0  0  0  0  0  0  0  0  0
    9.9156    0.2734    0.0000 C   0  0  0  0  0  0  0  0  0  0  0  0
    8.0413    0.7693    0.0000 C   0  0  0  0  0  0  0  0  0  0  0  0
    7.1753    0.2693    0.0000 C   0  0  0  0  0  0  0  0  0  0  0  0
    7.1753   -0.7307    0.0000 C   0  0  0  0  0  0  0  0  0  0  0  0
    6.3092    0.7693    0.0000 C   0  0  0  0  0  0  0  0  0  0  0  0
   11.5877   -1.1866    0.0000 C   0  0  0  0  0  0  0  0  0  0  0  0
    8.0413    1.7693    0.0000 C   0  0  0  0  0  0  0  0  0  0  0  0
   12.2934   -1.8952    0.0000 C   0  0  0  0  0  0  0  0  0  0  0  0
    4.5772    0.7693    0.0000 C   0  0  0  0  0  0  0  0  0  0  0  0
   13.6201   -0.7055    0.0000 C   0  0  0  0  0  0  0  0  0  0  0  0
    2.9945    1.1057    0.0000 C   0  0  0  0  0  0  0  0  0  0  0  0
    2.0000    1.0011    0.0000 C   0  0  0  0  0  0  0  0  0  0  0  0
    9.1256   -1.5522    0.0000 H   0  0  0  0  0  0  0  0  0  0  0  0
   10.7012   -0.4104    0.0000 H   0  0  0  0  0  0  0  0  0  0  0  0
    6.5647   -0.6231    0.0000 H   0  0  0  0  0  0  0  0  0  0  0  0
    6.9632   -1.3134    0.0000 H   0  0  0  0  0  0  0  0  0  0  0  0
   10.4596   -2.0420    0.0000 H   0  0  0  0  0  0  0  0  0  0  0  0
    6.7078    1.2442    0.0000 H   0  0  0  0  0  0  0  0  0  0  0  0
    5.9107    1.2442    0.0000 H   0  0  0  0  0  0  0  0  0  0  0  0
   11.7848   -2.2498    0.0000 H   0  0  0  0  0  0  0  0  0  0  0  0
   12.5542   -2.4576    0.0000 H   0  0  0  0  0  0  0  0  0  0  0  0
   13.2835   -0.1848    0.0000 H   0  0  0  0  0  0  0  0  0  0  0  0
    1.9352    1.6177    0.0000 H   0  0  0  0  0  0  0  0  0  0  0  0
    1.3834    0.9363    0.0000 H   0  0  0  0  0  0  0  0  0  0  0  0
    2.0648    0.3845    0.0000 H   0  0  0  0  0  0  0  0  0  0  0  0
  1 16  1  0  0  0  0
  1 21  1  0  0  0  0
  2 22  1  0  0  0  0
  2 26  1  0  0  0  0
  3 26  1  0  0  0  0
  3 28  1  0  0  0  0
  4 18  2  0  0  0  0
  5 23  2  0  0  0  0
  6 24  1  0  0  0  0
  7 24  2  0  0  0  0
  8 16  1  0  0  0  0
  8 18  1  0  0  0  0
  8 19  1  0  0  0  0
  9 17  1  0  0  0  0
  9 23  1  0  0  0  0
  9 34  1  0  0  0  0
 10 11  1  0  0  0  0
 10 25  1  0  0  0  0
 10 27  1  0  0  0  0
 11 14  2  0  0  0  0
 12 15  1  0  0  0  0
 12 26  2  0  0  0  0
 13 14  1  0  0  0  0
 13 27  2  0  0  0  0
 15 28  2  0  0  0  0
 16 17  1  0  0  0  0
 16 30  1  0  0  0  0
 17 18  1  0  0  0  0
 17 31  1  0  0  0  0
 19 20  2  0  0  0  0
 19 24  1  0  0  0  0
 20 21  1  0  0  0  0
 20 22  1  0  0  0  0
 21 32  1  0  0  0  0
 21 33  1  0  0  0  0
 22 35  1  0  0  0  0
 22 36  1  0  0  0  0
 23 25  1  0  0  0  0
 25 37  1  0  0  0  0
 25 38  1  0  0  0  0
 27 39  1  0  0  0  0
 28 29  1  0  0  0  0
 29 40  1  0  0  0  0
 29 41  1  0  0  0  0
 29 42  1  0  0  0  0
M  CHG  1   6  -1
M  END
> <PUBCHEM_COMPOUND_CID>
2617

> <PUBCHEM_COMPOUND_CANONICALIZED>
1

> <PUBCHEM_CACTVS_COMPLEXITY>
734

> <PUBCHEM_CACTVS_HBOND_ACCEPTOR>
12

> <PUBCHEM_CACTVS_HBOND_DONOR>
1

> <PUBCHEM_CACTVS_ROTATABLE_BOND>
6

> <PUBCHEM_CACTVS_SUBSKEYS>
AAADccBz+ABgAAAAAAAAAAAAAABYAWLAAAAgAAAAAAAQAAAB4AAAHgQYAAAADCjFwgSHGAfIAAiuAgXxfAAQAYNQgJAVSIGYAECCRAggCCAUEAAAHgKwAQAAAAAAAAAAAAAAAAAAAAAAAAAAAAAAAAAAAA==

> <PUBCHEM_IUPAC_OPENEYE_NAME>
3-[(5-methyl-1,3,4-thiadiazol-2-yl)sulfanylmethyl]-8-oxo-7-[[2-(tetrazol-1-yl)acetyl]amino]-5-thia-1-azabicyclo[4.2.0]oct-2-ene-2-carboxylate

> <PUBCHEM_IUPAC_CAS_NAME>
3-[[(5-methyl-1,3,4-thiadiazol-2-yl)thio]methyl]-8-oxo-7-[[1-oxo-2-(1-tetrazolyl)ethyl]amino]-5-thia-1-azabicyclo[4.2.0]oct-2-ene-2-carboxylate

> <PUBCHEM_IUPAC_NAME>
3-[(5-methyl-1,3,4-thiadiazol-2-yl)sulfanylmethyl]-8-oxo-7-[[2-(tetrazol-1-yl)acetyl]amino]-5-thia-1-azabicyclo[4.2.0]oct-2-ene-2-carboxylate

> <PUBCHEM_IUPAC_SYSTEMATIC_NAME>
3-[(5-methyl-1,3,4-thiadiazol-2-yl)sulfanylmethyl]-8-oxidanylidene-7-[2-(1,2,3,4-tetrazol-1-yl)ethanoylamino]-5-thia-1-azabicyclo[4.2.0]oct-2-ene-2-carboxylate

> <PUBCHEM_IUPAC_TRADITIONAL_NAME>
8-keto-3-[[(5-methyl-1,3,4-thiadiazol-2-yl)thio]methyl]-7-[[2-(tetrazol-1-yl)acetyl]amino]-5-thia-1-azabicyclo[4.2.0]oct-2-ene-2-carboxylate

> <PUBCHEM_IUPAC_INCHI>
InChI=1S/C14H14N8O4S3/c1-6-17-18-14(29-6)28-4-7-3-27-12-9(11(24)22(12)10(7)13(25)26)16-8(23)2-21-5-15-19-20-21/h5,9,12H,2-4H2,1H3,(H,16,23)(H,25,26)/p-1

> <PUBCHEM_IUPAC_INCHIKEY>
MLYYVTUWGNIJIB-UHFFFAOYSA-M

> <PUBCHEM_XLOGP3>
0.3

> <PUBCHEM_EXACT_MASS>
453.022189

> <PUBCHEM_MOLECULAR_FORMULA>
C14H13N8O4S3-

> <PUBCHEM_MOLECULAR_WEIGHT>
453.49922

> <PUBCHEM_OPENEYE_CAN_SMILES>
CC1=NN=C(S1)SCC2=C(N3C(C(C3=O)NC(=O)CN4C=NN=N4)SC2)C(=O)[O-]

> <PUBCHEM_OPENEYE_ISO_SMILES>
CC1=NN=C(S1)SCC2=C(N3C(C(C3=O)NC(=O)CN4C=NN=N4)SC2)C(=O)[O-]

> <PUBCHEM_CACTVS_TPSA>
238

> <PUBCHEM_MONOISOTOPIC_WEIGHT>
453.022189

> <PUBCHEM_TOTAL_CHARGE>
-1

> <PUBCHEM_HEAVY_ATOM_COUNT>
29

> <PUBCHEM_ATOM_DEF_STEREO_COUNT>
0

> <PUBCHEM_ATOM_UDEF_STEREO_COUNT>
2

> <PUBCHEM_BOND_DEF_STEREO_COUNT>
0

> <PUBCHEM_BOND_UDEF_STEREO_COUNT>
0

> <PUBCHEM_ISOTOPIC_ATOM_COUNT>
0

> <PUBCHEM_COMPONENT_COUNT>
1

> <PUBCHEM_CACTVS_TAUTO_COUNT>
4

> <PUBCHEM_COORDINATE_TYPE>
1
5
255

> <PUBCHEM_BONDANNOTATIONS>
10  11  8
10  27  8
11  14  8
12  15  8
12  26  8
13  14  8
13  27  8
15  28  8
16  30  3
17  31  3
3  26  8
3  28  8

$$$$
