2622
  -OEChem-12171207562D

 56 59  0     1  0  0  0  0  0999 V2000
    5.6808   -0.0981    0.0000 S   0  0  0  0  0  0  0  0  0  0  0  0
   12.2581    0.3727    0.0000 S   0  0  0  0  0  0  0  0  0  0  0  0
    8.2607    2.1146    0.0000 O   0  0  0  0  0  0  0  0  0  0  0  0
    6.5468    3.4019    0.0000 O   0  5  0  0  0  0  0  0  0  0  0  0
    4.8147    3.4019    0.0000 O   0  0  0  0  0  0  0  0  0  0  0  0
    9.4880    0.9114    0.0000 O   0  0  0  0  0  0  0  0  0  0  0  0
   10.3777   -2.4365    0.0000 O   0  0  0  0  0  0  0  0  0  0  0  0
    3.0827    1.4019    0.0000 N   0  3  0  0  0  0  0  0  0  0  0  0
    6.5468    1.4019    0.0000 N   0  0  0  0  0  0  0  0  0  0  0  0
    8.2607   -0.3108    0.0000 N   0  0  0  0  0  0  0  0  0  0  0  0
    9.6720   -1.7279    0.0000 N   0  0  0  0  0  0  0  0  0  0  0  0
   11.6751   -1.1366    0.0000 N   0  0  0  0  0  0  0  0  0  0  0  0
   13.4478   -0.9540    0.0000 N   0  0  0  0  0  0  0  0  0  0  0  0
    2.1045    1.1940    0.0000 C   0  0  0  0  0  0  0  0  0  0  0  0
    3.5827    0.5359    0.0000 C   0  0  0  0  0  0  0  0  0  0  0  0
    3.9487    1.9019    0.0000 C   0  0  0  0  0  0  0  0  0  0  0  0
    2.0000    0.1995    0.0000 C   0  0  0  0  0  0  0  0  0  0  0  0
    2.9136   -0.2073    0.0000 C   0  0  0  0  0  0  0  0  0  0  0  0
    2.8748    2.3800    0.0000 C   0  0  0  0  0  0  0  0  0  0  0  0
    4.8147    1.4019    0.0000 C   0  0  0  0  0  0  0  0  0  0  0  0
    6.5468    0.4019    0.0000 C   0  0  3  0  0  0  0  0  0  0  0  0
    7.5551    0.3977    0.0000 C   0  0  3  0  0  0  0  0  0  0  0  0
    5.6808    1.9019    0.0000 C   0  0  0  0  0  0  0  0  0  0  0  0
    4.8147    0.4019    0.0000 C   0  0  0  0  0  0  0  0  0  0  0  0
    7.5551    1.4060    0.0000 C   0  0  0  0  0  0  0  0  0  0  0  0
    5.6808    2.9019    0.0000 C   0  0  0  0  0  0  0  0  0  0  0  0
    9.2272   -0.0540    0.0000 C   0  0  0  0  0  0  0  0  0  0  0  0
    9.9328   -0.7625    0.0000 C   0  0  0  0  0  0  0  0  0  0  0  0
   10.8993   -0.5057    0.0000 C   0  0  0  0  0  0  0  0  0  0  0  0
   11.2596    0.4271    0.0000 C   0  0  0  0  0  0  0  0  0  0  0  0
   12.5149   -0.5937    0.0000 C   0  0  0  0  0  0  0  0  0  0  0  0
   10.1169   -3.4019    0.0000 C   0  0  0  0  0  0  0  0  0  0  0  0
    2.0397    1.8106    0.0000 H   0  0  0  0  0  0  0  0  0  0  0  0
    1.4845    1.1940    0.0000 H   0  0  0  0  0  0  0  0  0  0  0  0
    3.9975    0.0751    0.0000 H   0  0  0  0  0  0  0  0  0  0  0  0
    4.0843    0.9003    0.0000 H   0  0  0  0  0  0  0  0  0  0  0  0
    4.3472    2.3768    0.0000 H   0  0  0  0  0  0  0  0  0  0  0  0
    3.5502    2.3768    0.0000 H   0  0  0  0  0  0  0  0  0  0  0  0
    1.3936    0.3284    0.0000 H   0  0  0  0  0  0  0  0  0  0  0  0
    1.8084   -0.3902    0.0000 H   0  0  0  0  0  0  0  0  0  0  0  0
    2.6035   -0.7442    0.0000 H   0  0  0  0  0  0  0  0  0  0  0  0
    3.4151   -0.5717    0.0000 H   0  0  0  0  0  0  0  0  0  0  0  0
    3.4812    2.5089    0.0000 H   0  0  0  0  0  0  0  0  0  0  0  0
    2.7459    2.9865    0.0000 H   0  0  0  0  0  0  0  0  0  0  0  0
    2.2683    2.2511    0.0000 H   0  0  0  0  0  0  0  0  0  0  0  0
    6.7651   -0.4196    0.0000 H   0  0  0  0  0  0  0  0  0  0  0  0
    8.3407    0.7222    0.0000 H   0  0  0  0  0  0  0  0  0  0  0  0
    4.2042    0.5095    0.0000 H   0  0  0  0  0  0  0  0  0  0  0  0
    4.6027   -0.1807    0.0000 H   0  0  0  0  0  0  0  0  0  0  0  0
    8.0990   -0.9094    0.0000 H   0  0  0  0  0  0  0  0  0  0  0  0
   10.9230    0.9478    0.0000 H   0  0  0  0  0  0  0  0  0  0  0  0
    9.5183   -3.2402    0.0000 H   0  0  0  0  0  0  0  0  0  0  0  0
    9.9552   -4.0004    0.0000 H   0  0  0  0  0  0  0  0  0  0  0  0
   10.7154   -3.5636    0.0000 H   0  0  0  0  0  0  0  0  0  0  0  0
   13.9304   -0.5648    0.0000 H   0  0  0  0  0  0  0  0  0  0  0  0
   13.5435   -1.5666    0.0000 H   0  0  0  0  0  0  0  0  0  0  0  0
  1 21  1  0  0  0  0
  1 24  1  0  0  0  0
  2 30  1  0  0  0  0
  2 31  1  0  0  0  0
  3 25  2  0  0  0  0
  4 26  1  0  0  0  0
  5 26  2  0  0  0  0
  6 27  2  0  0  0  0
  7 11  1  0  0  0  0
  7 32  1  0  0  0  0
  8 14  1  0  0  0  0
  8 15  1  0  0  0  0
  8 16  1  0  0  0  0
  8 19  1  0  0  0  0
  9 21  1  0  0  0  0
  9 23  1  0  0  0  0
  9 25  1  0  0  0  0
 10 22  1  0  0  0  0
 10 27  1  0  0  0  0
 10 50  1  0  0  0  0
 11 28  2  3  0  0  0
 12 29  1  0  0  0  0
 12 31  2  0  0  0  0
 13 31  1  0  0  0  0
 13 55  1  0  0  0  0
 13 56  1  0  0  0  0
 14 17  1  0  0  0  0
 14 33  1  0  0  0  0
 14 34  1  0  0  0  0
 15 18  1  0  0  0  0
 15 35  1  0  0  0  0
 15 36  1  0  0  0  0
 16 20  1  0  0  0  0
 16 37  1  0  0  0  0
 16 38  1  0  0  0  0
 17 18  1  0  0  0  0
 17 39  1  0  0  0  0
 17 40  1  0  0  0  0
 18 41  1  0  0  0  0
 18 42  1  0  0  0  0
 19 43  1  0  0  0  0
 19 44  1  0  0  0  0
 19 45  1  0  0  0  0
 20 23  2  0  0  0  0
 20 24  1  0  0  0  0
 21 22  1  0  0  0  0
 21 46  1  0  0  0  0
 22 25  1  0  0  0  0
 22 47  1  0  0  0  0
 23 26  1  0  0  0  0
 24 48  1  0  0  0  0
 24 49  1  0  0  0  0
 27 28  1  0  0  0  0
 28 29  1  0  0  0  0
 29 30  2  0  0  0  0
 30 51  1  0  0  0  0
 32 52  1  0  0  0  0
 32 53  1  0  0  0  0
 32 54  1  0  0  0  0
M  CHG  2   4  -1   8   1
M  END
> <PUBCHEM_COMPOUND_CID>
2622

> <PUBCHEM_COMPOUND_CANONICALIZED>
1

> <PUBCHEM_CACTVS_COMPLEXITY>
869

> <PUBCHEM_CACTVS_HBOND_ACCEPTOR>
10

> <PUBCHEM_CACTVS_HBOND_DONOR>
2

> <PUBCHEM_CACTVS_ROTATABLE_BOND>
6

> <PUBCHEM_CACTVS_SUBSKEYS>
AAADceB7uABgAAAAAAAAAAAAAABYAWLAAAAgAAAAAAAQAAABgAAAHgQUAAAADCjF1gajmRPYEAisAwXyfACA8KlhCjkACJW4IFiCZJggxCEUEAAAFgKwASAAAAAAAAAAAAAAAAAAAAAAAAAAAAAAAAAAAA==

> <PUBCHEM_IUPAC_OPENEYE_NAME>
7-[[2-(2-aminothiazol-4-yl)-2-methoxyimino-acetyl]amino]-3-[(1-methylpyrrolidin-1-ium-1-yl)methyl]-8-oxo-5-thia-1-azabicyclo[4.2.0]oct-2-ene-2-carboxylate

> <PUBCHEM_IUPAC_CAS_NAME>
7-[[2-(2-amino-4-thiazolyl)-2-methoxyimino-1-oxoethyl]amino]-3-[(1-methyl-1-pyrrolidin-1-iumyl)methyl]-8-oxo-5-thia-1-azabicyclo[4.2.0]oct-2-ene-2-carboxylate

> <PUBCHEM_IUPAC_NAME>
7-[[2-(2-amino-1,3-thiazol-4-yl)-2-methoxyiminoacetyl]amino]-3-[(1-methylpyrrolidin-1-ium-1-yl)methyl]-8-oxo-5-thia-1-azabicyclo[4.2.0]oct-2-ene-2-carboxylate

> <PUBCHEM_IUPAC_SYSTEMATIC_NAME>
7-[[2-(2-azanyl-1,3-thiazol-4-yl)-2-methoxyimino-ethanoyl]amino]-3-[(1-methylpyrrolidin-1-ium-1-yl)methyl]-8-oxidanylidene-5-thia-1-azabicyclo[4.2.0]oct-2-ene-2-carboxylate

> <PUBCHEM_IUPAC_TRADITIONAL_NAME>
7-[[2-(2-aminothiazol-4-yl)-2-methyloximino-acetyl]amino]-8-keto-3-[(1-methylpyrrolidin-1-ium-1-yl)methyl]-5-thia-1-azabicyclo[4.2.0]oct-2-ene-2-carboxylate

> <PUBCHEM_IUPAC_INCHI>
InChI=1S/C19H24N6O5S2/c1-25(5-3-4-6-25)7-10-8-31-17-13(16(27)24(17)14(10)18(28)29)22-15(26)12(23-30-2)11-9-32-19(20)21-11/h9,13,17H,3-8H2,1-2H3,(H3-,20,21,22,26,28,29)

> <PUBCHEM_IUPAC_INCHIKEY>
HVFLCNVBZFFHBT-UHFFFAOYSA-N

> <PUBCHEM_XLOGP3>
-0.1

> <PUBCHEM_EXACT_MASS>
480.12496

> <PUBCHEM_MOLECULAR_FORMULA>
C19H24N6O5S2

> <PUBCHEM_MOLECULAR_WEIGHT>
480.56106

> <PUBCHEM_OPENEYE_CAN_SMILES>
C[N+]1(CCCC1)CC2=C(N3C(C(C3=O)NC(=O)C(=NOC)C4=CSC(=N4)N)SC2)C(=O)[O-]

> <PUBCHEM_OPENEYE_ISO_SMILES>
C[N+]1(CCCC1)CC2=C(N3C(C(C3=O)NC(=O)C(=NOC)C4=CSC(=N4)N)SC2)C(=O)[O-]

> <PUBCHEM_CACTVS_TPSA>
204

> <PUBCHEM_MONOISOTOPIC_WEIGHT>
480.12496

> <PUBCHEM_TOTAL_CHARGE>
0

> <PUBCHEM_HEAVY_ATOM_COUNT>
32

> <PUBCHEM_ATOM_DEF_STEREO_COUNT>
0

> <PUBCHEM_ATOM_UDEF_STEREO_COUNT>
2

> <PUBCHEM_BOND_DEF_STEREO_COUNT>
0

> <PUBCHEM_BOND_UDEF_STEREO_COUNT>
1

> <PUBCHEM_ISOTOPIC_ATOM_COUNT>
0

> <PUBCHEM_COMPONENT_COUNT>
1

> <PUBCHEM_CACTVS_TAUTO_COUNT>
14

> <PUBCHEM_COORDINATE_TYPE>
1
5
255

> <PUBCHEM_BONDANNOTATIONS>
11  28  1
12  29  8
12  31  8
2  30  8
2  31  8
21  46  3
22  47  3
29  30  8

$$$$
