2637
  -OEChem-12171207562D

 44 46  0     1  0  0  0  0  0999 V2000
    6.8671   -0.3371    0.0000 S   0  0  0  0  0  0  0  0  0  0  0  0
   11.3292   -2.4922    0.0000 S   0  0  0  0  0  0  0  0  0  0  0  0
    8.7393   -0.8413    0.0000 O   0  0  0  0  0  0  0  0  0  0  0  0
    9.4470    1.8756    0.0000 O   0  0  0  0  0  0  0  0  0  0  0  0
    4.2690    1.1629    0.0000 O   0  0  0  0  0  0  0  0  0  0  0  0
    9.7378   -1.5754    0.0000 O   0  0  0  0  0  0  0  0  0  0  0  0
    6.0010    3.1629    0.0000 O   0  5  0  0  0  0  0  0  0  0  0  0
    7.7331    3.1629    0.0000 O   0  0  0  0  0  0  0  0  0  0  0  0
    3.4030    2.6629    0.0000 O   0  0  0  0  0  0  0  0  0  0  0  0
    7.7331    1.1629    0.0000 N   0  0  0  0  0  0  0  0  0  0  0  0
    9.7414    0.1567    0.0000 N   0  0  0  0  0  0  0  0  0  0  0  0
    2.5369    1.1629    0.0000 N   0  0  0  0  0  0  0  0  0  0  0  0
    8.7414    0.1587    0.0000 C   0  0  3  0  0  0  0  0  0  0  0  0
    7.7331    0.1629    0.0000 C   0  0  3  0  0  0  0  0  0  0  0  0
    8.7414    1.1670    0.0000 C   0  0  0  0  0  0  0  0  0  0  0  0
    6.8671    1.6629    0.0000 C   0  0  0  0  0  0  0  0  0  0  0  0
    6.0010    1.1629    0.0000 C   0  0  0  0  0  0  0  0  0  0  0  0
    6.0010    0.1629    0.0000 C   0  0  0  0  0  0  0  0  0  0  0  0
    5.1350    1.6629    0.0000 C   0  0  0  0  0  0  0  0  0  0  0  0
   10.2396   -0.7104    0.0000 C   0  0  0  0  0  0  0  0  0  0  0  0
    6.8671    2.6629    0.0000 C   0  0  0  0  0  0  0  0  0  0  0  0
    7.8723   -1.3395    0.0000 C   0  0  0  0  0  0  0  0  0  0  0  0
   11.2396   -0.7124    0.0000 C   0  0  0  0  0  0  0  0  0  0  0  0
   11.7378   -1.5795    0.0000 C   0  0  0  0  0  0  0  0  0  0  0  0
   12.7321   -1.6861    0.0000 C   0  0  0  0  0  0  0  0  0  0  0  0
    3.4030    1.6629    0.0000 C   0  0  0  0  0  0  0  0  0  0  0  0
   12.9380   -2.6646    0.0000 C   0  0  0  0  0  0  0  0  0  0  0  0
   12.0710   -3.1629    0.0000 C   0  0  0  0  0  0  0  0  0  0  0  0
    7.8923   -0.4363    0.0000 H   0  0  0  0  0  0  0  0  0  0  0  0
   10.0525    0.6930    0.0000 H   0  0  0  0  0  0  0  0  0  0  0  0
    5.3905    0.2705    0.0000 H   0  0  0  0  0  0  0  0  0  0  0  0
    5.7890   -0.4197    0.0000 H   0  0  0  0  0  0  0  0  0  0  0  0
    5.5335    2.1378    0.0000 H   0  0  0  0  0  0  0  0  0  0  0  0
    4.7365    2.1378    0.0000 H   0  0  0  0  0  0  0  0  0  0  0  0
    7.5634   -0.8019    0.0000 H   0  0  0  0  0  0  0  0  0  0  0  0
    7.3347   -1.6484    0.0000 H   0  0  0  0  0  0  0  0  0  0  0  0
    8.1812   -1.8771    0.0000 H   0  0  0  0  0  0  0  0  0  0  0  0
   11.8226   -0.5016    0.0000 H   0  0  0  0  0  0  0  0  0  0  0  0
   11.1332   -0.1016    0.0000 H   0  0  0  0  0  0  0  0  0  0  0  0
   13.1479   -1.2262    0.0000 H   0  0  0  0  0  0  0  0  0  0  0  0
   13.5039   -2.9180    0.0000 H   0  0  0  0  0  0  0  0  0  0  0  0
   12.0049   -3.7793    0.0000 H   0  0  0  0  0  0  0  0  0  0  0  0
    2.0000    1.4729    0.0000 H   0  0  0  0  0  0  0  0  0  0  0  0
    2.5369    0.5429    0.0000 H   0  0  0  0  0  0  0  0  0  0  0  0
  1 14  1  0  0  0  0
  1 18  1  0  0  0  0
  2 24  1  0  0  0  0
  2 28  1  0  0  0  0
  3 13  1  0  0  0  0
  3 22  1  0  0  0  0
  4 15  2  0  0  0  0
  5 19  1  0  0  0  0
  5 26  1  0  0  0  0
  6 20  2  0  0  0  0
  7 21  1  0  0  0  0
  8 21  2  0  0  0  0
  9 26  2  0  0  0  0
 10 14  1  0  0  0  0
 10 15  1  0  0  0  0
 10 16  1  0  0  0  0
 11 13  1  0  0  0  0
 11 20  1  0  0  0  0
 11 30  1  0  0  0  0
 12 26  1  0  0  0  0
 12 43  1  0  0  0  0
 12 44  1  0  0  0  0
 13 14  1  0  0  0  0
 13 15  1  0  0  0  0
 14 29  1  0  0  0  0
 16 17  2  0  0  0  0
 16 21  1  0  0  0  0
 17 18  1  0  0  0  0
 17 19  1  0  0  0  0
 18 31  1  0  0  0  0
 18 32  1  0  0  0  0
 19 33  1  0  0  0  0
 19 34  1  0  0  0  0
 20 23  1  0  0  0  0
 22 35  1  0  0  0  0
 22 36  1  0  0  0  0
 22 37  1  0  0  0  0
 23 24  1  0  0  0  0
 23 38  1  0  0  0  0
 23 39  1  0  0  0  0
 24 25  2  0  0  0  0
 25 27  1  0  0  0  0
 25 40  1  0  0  0  0
 27 28  2  0  0  0  0
 27 41  1  0  0  0  0
 28 42  1  0  0  0  0
M  CHG  1   7  -1
M  END
> <PUBCHEM_COMPOUND_CID>
2637

> <PUBCHEM_COMPOUND_CANONICALIZED>
1

> <PUBCHEM_CACTVS_COMPLEXITY>
738

> <PUBCHEM_CACTVS_HBOND_ACCEPTOR>
9

> <PUBCHEM_CACTVS_HBOND_DONOR>
2

> <PUBCHEM_CACTVS_ROTATABLE_BOND>
7

> <PUBCHEM_CACTVS_SUBSKEYS>
AAADceB7OABgAAAAAAAAAAAAAABYASAAAAAgAAAAAAAQAAABgAAAHgQQAAAADAzl0AayCYPABAiMAiXSWAIDAIBgCBBIiBnIAMkKZDqgtTWdEAAglgC4qQcYCAAAAAAAAAAAAAAAAAAAAAAAAAAAAAAAAA==

> <PUBCHEM_IUPAC_OPENEYE_NAME>
3-(carbamoyloxymethyl)-7-methoxy-8-oxo-7-[[2-(2-thienyl)acetyl]amino]-5-thia-1-azabicyclo[4.2.0]oct-2-ene-2-carboxylate

> <PUBCHEM_IUPAC_CAS_NAME>
3-(carbamoyloxymethyl)-7-methoxy-8-oxo-7-[(1-oxo-2-thiophen-2-ylethyl)amino]-5-thia-1-azabicyclo[4.2.0]oct-2-ene-2-carboxylate

> <PUBCHEM_IUPAC_NAME>
3-(carbamoyloxymethyl)-7-methoxy-8-oxo-7-[(2-thiophen-2-ylacetyl)amino]-5-thia-1-azabicyclo[4.2.0]oct-2-ene-2-carboxylate

> <PUBCHEM_IUPAC_SYSTEMATIC_NAME>
3-(aminocarbonyloxymethyl)-7-methoxy-8-oxidanylidene-7-(2-thiophen-2-ylethanoylamino)-5-thia-1-azabicyclo[4.2.0]oct-2-ene-2-carboxylate

> <PUBCHEM_IUPAC_TRADITIONAL_NAME>
3-(carbamoyloxymethyl)-8-keto-7-methoxy-7-[[2-(2-thienyl)acetyl]amino]-5-thia-1-azabicyclo[4.2.0]oct-2-ene-2-carboxylate

> <PUBCHEM_IUPAC_INCHI>
InChI=1S/C16H17N3O7S2/c1-25-16(18-10(20)5-9-3-2-4-27-9)13(23)19-11(12(21)22)8(6-26-15(17)24)7-28-14(16)19/h2-4,14H,5-7H2,1H3,(H2,17,24)(H,18,20)(H,21,22)/p-1

> <PUBCHEM_IUPAC_INCHIKEY>
WZOZEZRFJCJXNZ-UHFFFAOYSA-M

> <PUBCHEM_XLOGP3>
0.6

> <PUBCHEM_EXACT_MASS>
426.042967

> <PUBCHEM_MOLECULAR_FORMULA>
C16H16N3O7S2-

> <PUBCHEM_MOLECULAR_WEIGHT>
426.44414

> <PUBCHEM_OPENEYE_CAN_SMILES>
COC1(C2N(C1=O)C(=C(CS2)COC(=O)N)C(=O)[O-])NC(=O)CC3=CC=CS3

> <PUBCHEM_OPENEYE_ISO_SMILES>
COC1(C2N(C1=O)C(=C(CS2)COC(=O)N)C(=O)[O-])NC(=O)CC3=CC=CS3

> <PUBCHEM_CACTVS_TPSA>
205

> <PUBCHEM_MONOISOTOPIC_WEIGHT>
426.042967

> <PUBCHEM_TOTAL_CHARGE>
-1

> <PUBCHEM_HEAVY_ATOM_COUNT>
28

> <PUBCHEM_ATOM_DEF_STEREO_COUNT>
0

> <PUBCHEM_ATOM_UDEF_STEREO_COUNT>
2

> <PUBCHEM_BOND_DEF_STEREO_COUNT>
0

> <PUBCHEM_BOND_UDEF_STEREO_COUNT>
0

> <PUBCHEM_ISOTOPIC_ATOM_COUNT>
0

> <PUBCHEM_COMPONENT_COUNT>
1

> <PUBCHEM_CACTVS_TAUTO_COUNT>
4

> <PUBCHEM_COORDINATE_TYPE>
1
5
255

> <PUBCHEM_BONDANNOTATIONS>
14  1  3
13  11  3
2  24  8
2  28  8
24  25  8
25  27  8
27  28  8

$$$$
