2654
  -OEChem-12171207562D

 41 43  0     1  0  0  0  0  0999 V2000
    2.8660    0.2454    0.0000 S   0  0  0  0  0  0  0  0  0  0  0  0
    9.7002   -0.2502    0.0000 S   0  0  0  0  0  0  0  0  0  0  0  0
    5.4460    2.4581    0.0000 O   0  0  0  0  0  0  0  0  0  0  0  0
    2.0000    3.7454    0.0000 O   0  0  0  0  0  0  0  0  0  0  0  0
    6.6732    1.2550    0.0000 O   0  0  0  0  0  0  0  0  0  0  0  0
    3.7320    3.7454    0.0000 O   0  0  0  0  0  0  0  0  0  0  0  0
    8.0078   -3.7669    0.0000 O   0  0  0  0  0  0  0  0  0  0  0  0
    6.3357   -3.3152    0.0000 O   0  0  0  0  0  0  0  0  0  0  0  0
    3.7320    1.7454    0.0000 N   0  0  0  0  0  0  0  0  0  0  0  0
    5.4460    0.0327    0.0000 N   0  0  0  0  0  0  0  0  0  0  0  0
    8.4448    0.7707    0.0000 N   0  0  0  0  0  0  0  0  0  0  0  0
   10.0743    1.4922    0.0000 N   0  0  0  0  0  0  0  0  0  0  0  0
    3.7320    0.7454    0.0000 C   0  0  3  0  0  0  0  0  0  0  0  0
    4.7403    0.7413    0.0000 C   0  0  3  0  0  0  0  0  0  0  0  0
    4.7403    1.7496    0.0000 C   0  0  0  0  0  0  0  0  0  0  0  0
    2.8660    2.2454    0.0000 C   0  0  0  0  0  0  0  0  0  0  0  0
    2.0000    0.7454    0.0000 C   0  0  0  0  0  0  0  0  0  0  0  0
    2.0000    1.7454    0.0000 C   0  0  0  0  0  0  0  0  0  0  0  0
    6.4124    0.2896    0.0000 C   0  0  0  0  0  0  0  0  0  0  0  0
    2.8660    3.2454    0.0000 C   0  0  0  0  0  0  0  0  0  0  0  0
    7.1181   -0.4190    0.0000 C   0  0  0  0  0  0  0  0  0  0  0  0
    8.0846   -0.1622    0.0000 C   0  0  0  0  0  0  0  0  0  0  0  0
    6.8573   -1.3844    0.0000 C   0  0  0  0  0  0  0  0  0  0  0  0
    7.5629   -2.0929    0.0000 C   0  0  0  0  0  0  0  0  0  0  0  0
    8.8604   -0.7931    0.0000 C   0  0  0  0  0  0  0  0  0  0  0  0
    9.4434    0.7163    0.0000 C   0  0  0  0  0  0  0  0  0  0  0  0
    7.3021   -3.0583    0.0000 C   0  0  0  0  0  0  0  0  0  0  0  0
    3.9504   -0.0761    0.0000 H   0  0  0  0  0  0  0  0  0  0  0  0
    4.4126   -0.0430    0.0000 H   0  0  0  0  0  0  0  0  0  0  0  0
    5.2843   -0.5658    0.0000 H   0  0  0  0  0  0  0  0  0  0  0  0
    1.3894    0.8531    0.0000 H   0  0  0  0  0  0  0  0  0  0  0  0
    1.7880    0.1628    0.0000 H   0  0  0  0  0  0  0  0  0  0  0  0
    1.4631    2.0554    0.0000 H   0  0  0  0  0  0  0  0  0  0  0  0
    6.2581   -1.5436    0.0000 H   0  0  0  0  0  0  0  0  0  0  0  0
    2.0000    4.3654    0.0000 H   0  0  0  0  0  0  0  0  0  0  0  0
    8.1243   -2.3561    0.0000 H   0  0  0  0  0  0  0  0  0  0  0  0
    7.9196   -1.5858    0.0000 H   0  0  0  0  0  0  0  0  0  0  0  0
    8.8267   -1.4122    0.0000 H   0  0  0  0  0  0  0  0  0  0  0  0
   10.6864    1.3939    0.0000 H   0  0  0  0  0  0  0  0  0  0  0  0
    9.8533    2.0714    0.0000 H   0  0  0  0  0  0  0  0  0  0  0  0
    7.8461   -4.3654    0.0000 H   0  0  0  0  0  0  0  0  0  0  0  0
  1 13  1  0  0  0  0
  1 17  1  0  0  0  0
  2 25  1  0  0  0  0
  2 26  1  0  0  0  0
  3 15  2  0  0  0  0
  4 20  1  0  0  0  0
  4 35  1  0  0  0  0
  5 19  2  0  0  0  0
  6 20  2  0  0  0  0
  7 27  1  0  0  0  0
  7 41  1  0  0  0  0
  8 27  2  0  0  0  0
  9 13  1  0  0  0  0
  9 15  1  0  0  0  0
  9 16  1  0  0  0  0
 10 14  1  0  0  0  0
 10 19  1  0  0  0  0
 10 30  1  0  0  0  0
 11 22  1  0  0  0  0
 11 26  2  0  0  0  0
 12 26  1  0  0  0  0
 12 39  1  0  0  0  0
 12 40  1  0  0  0  0
 13 14  1  0  0  0  0
 13 28  1  0  0  0  0
 14 15  1  0  0  0  0
 14 29  1  0  0  0  0
 16 18  2  0  0  0  0
 16 20  1  0  0  0  0
 17 18  1  0  0  0  0
 17 31  1  0  0  0  0
 17 32  1  0  0  0  0
 18 33  1  0  0  0  0
 19 21  1  0  0  0  0
 21 22  1  0  0  0  0
 21 23  2  3  0  0  0
 22 25  2  0  0  0  0
 23 24  1  0  0  0  0
 23 34  1  0  0  0  0
 24 27  1  0  0  0  0
 24 36  1  0  0  0  0
 24 37  1  0  0  0  0
 25 38  1  0  0  0  0
M  END
> <PUBCHEM_COMPOUND_CID>
2654

> <PUBCHEM_COMPOUND_CANONICALIZED>
1

> <PUBCHEM_CACTVS_COMPLEXITY>
755

> <PUBCHEM_CACTVS_HBOND_ACCEPTOR>
10

> <PUBCHEM_CACTVS_HBOND_DONOR>
4

> <PUBCHEM_CACTVS_ROTATABLE_BOND>
6

> <PUBCHEM_CACTVS_SUBSKEYS>
AAADccBzuABgAAAAAAAAAAAAAABYAWAAAAAgAAAAAAAQAAABgAAAHgQQCAAADCjF1gShmRPIEgisAyXyfACC8KlhCjkAiJW4IFiKZBigxCEUUAAAVgK4kaYAAAAAAAAAAAAAAAAAAAAAAAAAAAAAAAAAAA==

> <PUBCHEM_IUPAC_OPENEYE_NAME>
7-[[2-(2-aminothiazol-4-yl)-4-carboxy-but-2-enoyl]amino]-8-oxo-5-thia-1-azabicyclo[4.2.0]oct-2-ene-2-carboxylic acid

> <PUBCHEM_IUPAC_CAS_NAME>
7-[[2-(2-amino-4-thiazolyl)-4-carboxy-1-oxobut-2-enyl]amino]-8-oxo-5-thia-1-azabicyclo[4.2.0]oct-2-ene-2-carboxylic acid

> <PUBCHEM_IUPAC_NAME>
7-[[2-(2-amino-1,3-thiazol-4-yl)-4-carboxybut-2-enoyl]amino]-8-oxo-5-thia-1-azabicyclo[4.2.0]oct-2-ene-2-carboxylic acid

> <PUBCHEM_IUPAC_SYSTEMATIC_NAME>
7-[[2-(2-azanyl-1,3-thiazol-4-yl)-5-oxidanyl-5-oxidanylidene-pent-2-enoyl]amino]-8-oxidanylidene-5-thia-1-azabicyclo[4.2.0]oct-2-ene-2-carboxylic acid

> <PUBCHEM_IUPAC_TRADITIONAL_NAME>
7-[[2-(2-aminothiazol-4-yl)-4-carboxy-but-2-enoyl]amino]-8-keto-5-thia-1-azabicyclo[4.2.0]oct-2-ene-2-carboxylic acid

> <PUBCHEM_IUPAC_INCHI>
InChI=1S/C15H14N4O6S2/c16-15-17-7(5-27-15)6(1-2-9(20)21)11(22)18-10-12(23)19-8(14(24)25)3-4-26-13(10)19/h1,3,5,10,13H,2,4H2,(H2,16,17)(H,18,22)(H,20,21)(H,24,25)

> <PUBCHEM_IUPAC_INCHIKEY>
UNJFKXSSGBWRBZ-UHFFFAOYSA-N

> <PUBCHEM_XLOGP3_AA>
-0.3

> <PUBCHEM_EXACT_MASS>
410.035476

> <PUBCHEM_MOLECULAR_FORMULA>
C15H14N4O6S2

> <PUBCHEM_MOLECULAR_WEIGHT>
410.42486

> <PUBCHEM_OPENEYE_CAN_SMILES>
C1C=C(N2C(S1)C(C2=O)NC(=O)C(=CCC(=O)O)C3=CSC(=N3)N)C(=O)O

> <PUBCHEM_OPENEYE_ISO_SMILES>
C1C=C(N2C(S1)C(C2=O)NC(=O)C(=CCC(=O)O)C3=CSC(=N3)N)C(=O)O

> <PUBCHEM_CACTVS_TPSA>
217

> <PUBCHEM_MONOISOTOPIC_WEIGHT>
410.035476

> <PUBCHEM_TOTAL_CHARGE>
0

> <PUBCHEM_HEAVY_ATOM_COUNT>
27

> <PUBCHEM_ATOM_DEF_STEREO_COUNT>
0

> <PUBCHEM_ATOM_UDEF_STEREO_COUNT>
2

> <PUBCHEM_BOND_DEF_STEREO_COUNT>
0

> <PUBCHEM_BOND_UDEF_STEREO_COUNT>
1

> <PUBCHEM_ISOTOPIC_ATOM_COUNT>
0

> <PUBCHEM_COMPONENT_COUNT>
1

> <PUBCHEM_CACTVS_TAUTO_COUNT>
12

> <PUBCHEM_COORDINATE_TYPE>
1
5
255

> <PUBCHEM_BONDANNOTATIONS>
11  22  8
11  26  8
13  28  3
14  29  3
2  25  8
2  26  8
21  23  1
22  25  8

$$$$
