2656
  -OEChem-12171207572D

 52 55  0     1  0  0  0  0  0999 V2000
    8.0622   -0.5981    0.0000 S   0  0  0  0  0  0  0  0  0  0  0  0
    5.4641    0.9019    0.0000 S   0  0  0  0  0  0  0  0  0  0  0  0
   14.8963   -1.0937    0.0000 S   0  0  0  0  0  0  0  0  0  0  0  0
   10.6421    1.6146    0.0000 O   0  0  0  0  0  0  0  0  0  0  0  0
    7.1962    2.9019    0.0000 O   0  5  0  0  0  0  0  0  0  0  0  0
    8.9282    2.9019    0.0000 O   0  0  0  0  0  0  0  0  0  0  0  0
   11.8694    0.4114    0.0000 O   0  0  0  0  0  0  0  0  0  0  0  0
   12.7591   -2.9365    0.0000 O   0  0  0  0  0  0  0  0  0  0  0  0
    3.7320    3.9019    0.0000 O   0  0  0  0  0  0  0  0  0  0  0  0
    2.0000    2.9019    0.0000 O   0  5  0  0  0  0  0  0  0  0  0  0
    8.9282    0.9019    0.0000 N   0  0  0  0  0  0  0  0  0  0  0  0
   10.6421   -0.8108    0.0000 N   0  0  0  0  0  0  0  0  0  0  0  0
   12.0534   -2.2279    0.0000 N   0  0  0  0  0  0  0  0  0  0  0  0
    3.7320    0.9019    0.0000 N   0  0  0  0  0  0  0  0  0  0  0  0
    4.5981    2.4019    0.0000 N   0  0  0  0  0  0  0  0  0  0  0  0
   13.6410   -0.0729    0.0000 N   0  0  0  0  0  0  0  0  0  0  0  0
    2.8660    1.4019    0.0000 N   0  0  0  0  0  0  0  0  0  0  0  0
   15.2704    0.6486    0.0000 N   0  0  0  0  0  0  0  0  0  0  0  0
    8.9282   -0.0981    0.0000 C   0  0  3  0  0  0  0  0  0  0  0  0
    9.9365   -0.1023    0.0000 C   0  0  3  0  0  0  0  0  0  0  0  0
    9.9365    0.9060    0.0000 C   0  0  0  0  0  0  0  0  0  0  0  0
    8.0622    1.4019    0.0000 C   0  0  0  0  0  0  0  0  0  0  0  0
    7.1962    0.9019    0.0000 C   0  0  0  0  0  0  0  0  0  0  0  0
    7.1962   -0.0981    0.0000 C   0  0  0  0  0  0  0  0  0  0  0  0
    6.3301    1.4019    0.0000 C   0  0  0  0  0  0  0  0  0  0  0  0
    8.0622    2.4019    0.0000 C   0  0  0  0  0  0  0  0  0  0  0  0
   11.6086   -0.5540    0.0000 C   0  0  0  0  0  0  0  0  0  0  0  0
   12.3142   -1.2625    0.0000 C   0  0  0  0  0  0  0  0  0  0  0  0
    4.5981    1.4019    0.0000 C   0  0  0  0  0  0  0  0  0  0  0  0
   13.2807   -1.0057    0.0000 C   0  0  0  0  0  0  0  0  0  0  0  0
   14.0566   -1.6366    0.0000 C   0  0  0  0  0  0  0  0  0  0  0  0
    3.7320   -0.0981    0.0000 C   0  0  0  0  0  0  0  0  0  0  0  0
   14.6395   -0.1273    0.0000 C   0  0  0  0  0  0  0  0  0  0  0  0
    3.7320    2.9019    0.0000 C   0  0  0  0  0  0  0  0  0  0  0  0
    2.8660    2.4019    0.0000 C   0  0  0  0  0  0  0  0  0  0  0  0
   12.4983   -3.9019    0.0000 C   0  0  0  0  0  0  0  0  0  0  0  0
    9.1465   -0.9196    0.0000 H   0  0  0  0  0  0  0  0  0  0  0  0
    9.6088   -0.8866    0.0000 H   0  0  0  0  0  0  0  0  0  0  0  0
    6.5856    0.0095    0.0000 H   0  0  0  0  0  0  0  0  0  0  0  0
    6.9841   -0.6807    0.0000 H   0  0  0  0  0  0  0  0  0  0  0  0
   10.4804   -1.4094    0.0000 H   0  0  0  0  0  0  0  0  0  0  0  0
    6.7287    1.8768    0.0000 H   0  0  0  0  0  0  0  0  0  0  0  0
    5.9316    1.8768    0.0000 H   0  0  0  0  0  0  0  0  0  0  0  0
   14.0228   -2.2557    0.0000 H   0  0  0  0  0  0  0  0  0  0  0  0
    3.1120   -0.0981    0.0000 H   0  0  0  0  0  0  0  0  0  0  0  0
    3.7320   -0.7181    0.0000 H   0  0  0  0  0  0  0  0  0  0  0  0
    4.3520   -0.0981    0.0000 H   0  0  0  0  0  0  0  0  0  0  0  0
   11.8997   -3.7402    0.0000 H   0  0  0  0  0  0  0  0  0  0  0  0
   12.3366   -4.5004    0.0000 H   0  0  0  0  0  0  0  0  0  0  0  0
   13.0968   -4.0636    0.0000 H   0  0  0  0  0  0  0  0  0  0  0  0
   15.8826    0.5503    0.0000 H   0  0  0  0  0  0  0  0  0  0  0  0
   15.0494    1.2279    0.0000 H   0  0  0  0  0  0  0  0  0  0  0  0
  1 19  1  0  0  0  0
  1 24  1  0  0  0  0
  2 25  1  0  0  0  0
  2 29  1  0  0  0  0
  3 31  1  0  0  0  0
  3 33  1  0  0  0  0
  4 21  2  0  0  0  0
  5 26  1  0  0  0  0
  6 26  2  0  0  0  0
  7 27  2  0  0  0  0
  8 13  1  0  0  0  0
  8 36  1  0  0  0  0
  9 34  2  0  0  0  0
 10 35  1  0  0  0  0
 11 19  1  0  0  0  0
 11 21  1  0  0  0  0
 11 22  1  0  0  0  0
 12 20  1  0  0  0  0
 12 27  1  0  0  0  0
 12 41  1  0  0  0  0
 13 28  2  3  0  0  0
 14 17  1  0  0  0  0
 14 29  1  0  0  0  0
 14 32  1  0  0  0  0
 15 29  2  0  0  0  0
 15 34  1  0  0  0  0
 16 30  1  0  0  0  0
 16 33  2  0  0  0  0
 17 35  2  0  0  0  0
 18 33  1  0  0  0  0
 18 51  1  0  0  0  0
 18 52  1  0  0  0  0
 19 20  1  0  0  0  0
 19 37  1  0  0  0  0
 20 21  1  0  0  0  0
 20 38  1  0  0  0  0
 22 23  2  0  0  0  0
 22 26  1  0  0  0  0
 23 24  1  0  0  0  0
 23 25  1  0  0  0  0
 24 39  1  0  0  0  0
 24 40  1  0  0  0  0
 25 42  1  0  0  0  0
 25 43  1  0  0  0  0
 27 28  1  0  0  0  0
 28 30  1  0  0  0  0
 30 31  2  0  0  0  0
 31 44  1  0  0  0  0
 32 45  1  0  0  0  0
 32 46  1  0  0  0  0
 32 47  1  0  0  0  0
 34 35  1  0  0  0  0
 36 48  1  0  0  0  0
 36 49  1  0  0  0  0
 36 50  1  0  0  0  0
M  CHG  2   5  -1  10  -1
M  END
> <PUBCHEM_COMPOUND_CID>
2656

> <PUBCHEM_COMPOUND_CANONICALIZED>
1

> <PUBCHEM_CACTVS_COMPLEXITY>
1120

> <PUBCHEM_CACTVS_HBOND_ACCEPTOR>
14

> <PUBCHEM_CACTVS_HBOND_DONOR>
2

> <PUBCHEM_CACTVS_ROTATABLE_BOND>
7

> <PUBCHEM_CACTVS_SUBSKEYS>
AAADceB7+ABgAAAAAAAAAAAAAABYAWAAAAAgQAAAAAAQAAABgAAAHgQcAAAADCjF1gajmRPYEAisAwXyfAIQ8KlhCjkBCJX4IFiCZJggxCEUEAAAHgKwASAAAAAAAAAAAAAAAAAAAAAAAAAAAAAAAAAAAA==

> <PUBCHEM_IUPAC_OPENEYE_NAME>
7-[[2-(2-aminothiazol-4-yl)-2-methoxyimino-acetyl]amino]-3-[(2-methyl-6-oxido-5-oxo-1,2,4-triazin-3-yl)sulfanylmethyl]-8-oxo-5-thia-1-azabicyclo[4.2.0]oct-2-ene-2-carboxylate

> <PUBCHEM_IUPAC_CAS_NAME>
7-[[2-(2-amino-4-thiazolyl)-2-methoxyimino-1-oxoethyl]amino]-3-[[(2-methyl-6-oxido-5-oxo-1,2,4-triazin-3-yl)thio]methyl]-8-oxo-5-thia-1-azabicyclo[4.2.0]oct-2-ene-2-carboxylate

> <PUBCHEM_IUPAC_NAME>
7-[[2-(2-amino-1,3-thiazol-4-yl)-2-methoxyiminoacetyl]amino]-3-[(2-methyl-6-oxido-5-oxo-1,2,4-triazin-3-yl)sulfanylmethyl]-8-oxo-5-thia-1-azabicyclo[4.2.0]oct-2-ene-2-carboxylate

> <PUBCHEM_IUPAC_SYSTEMATIC_NAME>
7-[[2-(2-azanyl-1,3-thiazol-4-yl)-2-methoxyimino-ethanoyl]amino]-3-[(2-methyl-6-oxidanidyl-5-oxidanylidene-1,2,4-triazin-3-yl)sulfanylmethyl]-8-oxidanylidene-5-thia-1-azabicyclo[4.2.0]oct-2-ene-2-carboxylate

> <PUBCHEM_IUPAC_TRADITIONAL_NAME>
7-[[2-(2-aminothiazol-4-yl)-2-methyloximino-acetyl]amino]-8-keto-3-[[(5-keto-2-methyl-6-oxido-1,2,4-triazin-3-yl)thio]methyl]-5-thia-1-azabicyclo[4.2.0]oct-2-ene-2-carboxylate

> <PUBCHEM_IUPAC_INCHI>
InChI=1S/C18H18N8O7S3/c1-25-18(22-12(28)13(29)23-25)36-4-6-3-34-15-9(14(30)26(15)10(6)16(31)32)21-11(27)8(24-33-2)7-5-35-17(19)20-7/h5,9,15H,3-4H2,1-2H3,(H2,19,20)(H,21,27)(H,23,29)(H,31,32)/p-2

> <PUBCHEM_IUPAC_INCHIKEY>
VAAUVRVFOQPIGI-UHFFFAOYSA-L

> <PUBCHEM_XLOGP3>
0.3

> <PUBCHEM_EXACT_MASS>
552.030408

> <PUBCHEM_MOLECULAR_FORMULA>
C18H16N8O7S3-2

> <PUBCHEM_MOLECULAR_WEIGHT>
552.56404

> <PUBCHEM_OPENEYE_CAN_SMILES>
CN1C(=NC(=O)C(=N1)[O-])SCC2=C(N3C(C(C3=O)NC(=O)C(=NOC)C4=CSC(=N4)N)SC2)C(=O)[O-]

> <PUBCHEM_OPENEYE_ISO_SMILES>
CN1C(=NC(=O)C(=N1)[O-])SCC2=C(N3C(C(C3=O)NC(=O)C(=NOC)C4=CSC(=N4)N)SC2)C(=O)[O-]

> <PUBCHEM_CACTVS_TPSA>
297

> <PUBCHEM_MONOISOTOPIC_WEIGHT>
552.030408

> <PUBCHEM_TOTAL_CHARGE>
-2

> <PUBCHEM_HEAVY_ATOM_COUNT>
36

> <PUBCHEM_ATOM_DEF_STEREO_COUNT>
0

> <PUBCHEM_ATOM_UDEF_STEREO_COUNT>
2

> <PUBCHEM_BOND_DEF_STEREO_COUNT>
0

> <PUBCHEM_BOND_UDEF_STEREO_COUNT>
1

> <PUBCHEM_ISOTOPIC_ATOM_COUNT>
0

> <PUBCHEM_COMPONENT_COUNT>
1

> <PUBCHEM_CACTVS_TAUTO_COUNT>
14

> <PUBCHEM_COORDINATE_TYPE>
1
5
255

> <PUBCHEM_BONDANNOTATIONS>
13  28  1
14  17  8
14  29  8
15  29  8
15  34  8
16  30  8
16  33  8
17  35  8
19  37  3
20  38  3
3  31  8
3  33  8
30  31  8
34  35  8

$$$$
