2675
  -OEChem-12171207572D

 45 47  0     1  0  0  0  0  0999 V2000
    4.5981    0.6485    0.0000 S   0  0  0  0  0  0  0  0  0  0  0  0
   11.4322    0.1529    0.0000 S   0  0  0  0  0  0  0  0  0  0  0  0
    7.1780    2.8612    0.0000 O   0  0  0  0  0  0  0  0  0  0  0  0
    3.7320    4.1485    0.0000 O   0  0  0  0  0  0  0  0  0  0  0  0
    5.4641    4.1485    0.0000 O   0  0  0  0  0  0  0  0  0  0  0  0
    8.4053    1.6580    0.0000 O   0  0  0  0  0  0  0  0  0  0  0  0
    9.2950   -1.6899    0.0000 O   0  0  0  0  0  0  0  0  0  0  0  0
    9.4790   -4.3292    0.0000 O   0  0  0  0  0  0  0  0  0  0  0  0
   10.7063   -3.1070    0.0000 O   0  0  0  0  0  0  0  0  0  0  0  0
    5.4641    2.1485    0.0000 N   0  0  0  0  0  0  0  0  0  0  0  0
    7.1780    0.4358    0.0000 N   0  0  0  0  0  0  0  0  0  0  0  0
    8.5893   -0.9813    0.0000 N   0  0  0  0  0  0  0  0  0  0  0  0
   10.1769    1.1738    0.0000 N   0  0  0  0  0  0  0  0  0  0  0  0
   11.8063    1.8952    0.0000 N   0  0  0  0  0  0  0  0  0  0  0  0
    5.4641    1.1485    0.0000 C   0  0  3  0  0  0  0  0  0  0  0  0
    6.4724    1.1444    0.0000 C   0  0  3  0  0  0  0  0  0  0  0  0
    6.4724    2.1527    0.0000 C   0  0  0  0  0  0  0  0  0  0  0  0
    4.5981    2.6485    0.0000 C   0  0  0  0  0  0  0  0  0  0  0  0
    3.7320    1.1485    0.0000 C   0  0  0  0  0  0  0  0  0  0  0  0
    3.7320    2.1485    0.0000 C   0  0  0  0  0  0  0  0  0  0  0  0
    4.5981    3.6485    0.0000 C   0  0  0  0  0  0  0  0  0  0  0  0
    8.1445    0.6926    0.0000 C   0  0  0  0  0  0  0  0  0  0  0  0
    2.8660    2.6485    0.0000 C   0  0  0  0  0  0  0  0  0  0  0  0
    8.8501   -0.0159    0.0000 C   0  0  0  0  0  0  0  0  0  0  0  0
    2.0000    2.1485    0.0000 C   0  0  0  0  0  0  0  0  0  0  0  0
    9.8166    0.2409    0.0000 C   0  0  0  0  0  0  0  0  0  0  0  0
   10.5924   -0.3900    0.0000 C   0  0  0  0  0  0  0  0  0  0  0  0
   11.1754    1.1194    0.0000 C   0  0  0  0  0  0  0  0  0  0  0  0
    9.0342   -2.6553    0.0000 C   0  0  0  0  0  0  0  0  0  0  0  0
    9.7398   -3.3638    0.0000 C   0  0  0  0  0  0  0  0  0  0  0  0
    5.6824    0.3270    0.0000 H   0  0  0  0  0  0  0  0  0  0  0  0
    6.1447    0.3601    0.0000 H   0  0  0  0  0  0  0  0  0  0  0  0
    7.0163   -0.1627    0.0000 H   0  0  0  0  0  0  0  0  0  0  0  0
    3.1215    1.2562    0.0000 H   0  0  0  0  0  0  0  0  0  0  0  0
    3.5200    0.5659    0.0000 H   0  0  0  0  0  0  0  0  0  0  0  0
    2.8660    3.2685    0.0000 H   0  0  0  0  0  0  0  0  0  0  0  0
    1.4631    2.4585    0.0000 H   0  0  0  0  0  0  0  0  0  0  0  0
    2.0000    1.5285    0.0000 H   0  0  0  0  0  0  0  0  0  0  0  0
    3.7320    4.7685    0.0000 H   0  0  0  0  0  0  0  0  0  0  0  0
   10.5587   -1.0091    0.0000 H   0  0  0  0  0  0  0  0  0  0  0  0
    8.4728   -2.3921    0.0000 H   0  0  0  0  0  0  0  0  0  0  0  0
    8.6775   -3.1624    0.0000 H   0  0  0  0  0  0  0  0  0  0  0  0
   12.4185    1.7970    0.0000 H   0  0  0  0  0  0  0  0  0  0  0  0
   11.5853    2.4745    0.0000 H   0  0  0  0  0  0  0  0  0  0  0  0
    9.9165   -4.7685    0.0000 H   0  0  0  0  0  0  0  0  0  0  0  0
  1 15  1  0  0  0  0
  1 19  1  0  0  0  0
  2 27  1  0  0  0  0
  2 28  1  0  0  0  0
  3 17  2  0  0  0  0
  4 21  1  0  0  0  0
  4 39  1  0  0  0  0
  5 21  2  0  0  0  0
  6 22  2  0  0  0  0
  7 12  1  0  0  0  0
  7 29  1  0  0  0  0
  8 30  1  0  0  0  0
  8 45  1  0  0  0  0
  9 30  2  0  0  0  0
 10 15  1  0  0  0  0
 10 17  1  0  0  0  0
 10 18  1  0  0  0  0
 11 16  1  0  0  0  0
 11 22  1  0  0  0  0
 11 33  1  0  0  0  0
 12 24  2  3  0  0  0
 13 26  1  0  0  0  0
 13 28  2  0  0  0  0
 14 28  1  0  0  0  0
 14 43  1  0  0  0  0
 14 44  1  0  0  0  0
 15 16  1  0  0  0  0
 15 31  1  0  0  0  0
 16 17  1  0  0  0  0
 16 32  1  0  0  0  0
 18 20  2  0  0  0  0
 18 21  1  0  0  0  0
 19 20  1  0  0  0  0
 19 34  1  0  0  0  0
 19 35  1  0  0  0  0
 20 23  1  0  0  0  0
 22 24  1  0  0  0  0
 23 25  2  0  0  0  0
 23 36  1  0  0  0  0
 24 26  1  0  0  0  0
 25 37  1  0  0  0  0
 25 38  1  0  0  0  0
 26 27  2  0  0  0  0
 27 40  1  0  0  0  0
 29 30  1  0  0  0  0
 29 41  1  0  0  0  0
 29 42  1  0  0  0  0
M  END
> <PUBCHEM_COMPOUND_CID>
2675

> <PUBCHEM_COMPOUND_CANONICALIZED>
1

> <PUBCHEM_CACTVS_COMPLEXITY>
861

> <PUBCHEM_CACTVS_HBOND_ACCEPTOR>
12

> <PUBCHEM_CACTVS_HBOND_DONOR>
4

> <PUBCHEM_CACTVS_ROTATABLE_BOND>
8

> <PUBCHEM_CACTVS_SUBSKEYS>
AAADccB7uABgAAAAAAAAAAAAAABYAWAAAAAgAAAAAAAQAAABgAAAHgQUCAAADCjl1gahmRPYEgisAyXyfAIA8KlhCjkICJX4IFiLZJggxCEUEAAAFgKxkSAAAAAAAAAAAAAAAAAAAAAAAAAAAAAAAAAAAA==

> <PUBCHEM_IUPAC_OPENEYE_NAME>
7-[[2-(2-aminothiazol-4-yl)-2-(carboxymethoxyimino)acetyl]amino]-8-oxo-3-vinyl-5-thia-1-azabicyclo[4.2.0]oct-2-ene-2-carboxylic acid

> <PUBCHEM_IUPAC_CAS_NAME>
7-[[2-(2-amino-4-thiazolyl)-2-(carboxymethoxyimino)-1-oxoethyl]amino]-3-ethenyl-8-oxo-5-thia-1-azabicyclo[4.2.0]oct-2-ene-2-carboxylic acid

> <PUBCHEM_IUPAC_NAME>
7-[[2-(2-amino-1,3-thiazol-4-yl)-2-(carboxymethoxyimino)acetyl]amino]-3-ethenyl-8-oxo-5-thia-1-azabicyclo[4.2.0]oct-2-ene-2-carboxylic acid

> <PUBCHEM_IUPAC_SYSTEMATIC_NAME>
7-[[2-(2-azanyl-1,3-thiazol-4-yl)-2-(2-hydroxy-2-oxoethyloxyimino)ethanoyl]amino]-3-ethenyl-8-oxidanylidene-5-thia-1-azabicyclo[4.2.0]oct-2-ene-2-carboxylic acid

> <PUBCHEM_IUPAC_TRADITIONAL_NAME>
7-[[2-(2-aminothiazol-4-yl)-2-(carboxymethyloximino)acetyl]amino]-8-keto-3-vinyl-5-thia-1-azabicyclo[4.2.0]oct-2-ene-2-carboxylic acid

> <PUBCHEM_IUPAC_INCHI>
InChI=1S/C16H15N5O7S2/c1-2-6-4-29-14-10(13(25)21(14)11(6)15(26)27)19-12(24)9(20-28-3-8(22)23)7-5-30-16(17)18-7/h2,5,10,14H,1,3-4H2,(H2,17,18)(H,19,24)(H,22,23)(H,26,27)

> <PUBCHEM_IUPAC_INCHIKEY>
OKBVVJOGVLARMR-UHFFFAOYSA-N

> <PUBCHEM_XLOGP3>
-0.7

> <PUBCHEM_EXACT_MASS>
453.04129

> <PUBCHEM_MOLECULAR_FORMULA>
C16H15N5O7S2

> <PUBCHEM_MOLECULAR_WEIGHT>
453.4496

> <PUBCHEM_OPENEYE_CAN_SMILES>
C=CC1=C(N2C(C(C2=O)NC(=O)C(=NOCC(=O)O)C3=CSC(=N3)N)SC1)C(=O)O

> <PUBCHEM_OPENEYE_ISO_SMILES>
C=CC1=C(N2C(C(C2=O)NC(=O)C(=NOCC(=O)O)C3=CSC(=N3)N)SC1)C(=O)O

> <PUBCHEM_CACTVS_TPSA>
238

> <PUBCHEM_MONOISOTOPIC_WEIGHT>
453.04129

> <PUBCHEM_TOTAL_CHARGE>
0

> <PUBCHEM_HEAVY_ATOM_COUNT>
30

> <PUBCHEM_ATOM_DEF_STEREO_COUNT>
0

> <PUBCHEM_ATOM_UDEF_STEREO_COUNT>
2

> <PUBCHEM_BOND_DEF_STEREO_COUNT>
0

> <PUBCHEM_BOND_UDEF_STEREO_COUNT>
1

> <PUBCHEM_ISOTOPIC_ATOM_COUNT>
0

> <PUBCHEM_COMPONENT_COUNT>
1

> <PUBCHEM_CACTVS_TAUTO_COUNT>
14

> <PUBCHEM_COORDINATE_TYPE>
1
5
255

> <PUBCHEM_BONDANNOTATIONS>
12  24  1
13  26  8
13  28  8
15  31  3
16  32  3
2  27  8
2  28  8
26  27  8

$$$$
