2676
  -OEChem-12171207572D

 67 68  0     1  0  0  0  0  0999 V2000
   10.3312    3.5000    0.0000 F   0  0  0  0  0  0  0  0  0  0  0  0
   12.9292   -1.0000    0.0000 O   0  0  0  0  0  0  0  0  0  0  0  0
    6.8671    0.5000    0.0000 O   0  0  0  0  0  0  0  0  0  0  0  0
    5.1350    0.5000    0.0000 O   0  0  0  0  0  0  0  0  0  0  0  0
    2.5369   -1.0000    0.0000 O   0  0  0  0  0  0  0  0  0  0  0  0
    3.4030    0.5000    0.0000 O   0  0  0  0  0  0  0  0  0  0  0  0
   10.3312   -2.5000    0.0000 N   0  0  0  0  0  0  0  0  0  0  0  0
   11.1972   -2.0000    0.0000 C   0  0  0  0  0  0  0  0  0  0  0  0
    9.4651   -2.0000    0.0000 C   0  0  0  0  0  0  0  0  0  0  0  0
   11.1972   -1.0000    0.0000 C   0  0  0  0  0  0  0  0  0  0  0  0
    9.4651   -1.0000    0.0000 C   0  0  0  0  0  0  0  0  0  0  0  0
   10.3312   -0.5000    0.0000 C   0  0  0  0  0  0  0  0  0  0  0  0
    8.5991   -2.5000    0.0000 C   0  0  0  0  0  0  0  0  0  0  0  0
   12.0632   -2.5000    0.0000 C   0  0  0  0  0  0  0  0  0  0  0  0
   12.0632   -0.5000    0.0000 C   0  0  0  0  0  0  0  0  0  0  0  0
   10.3312    0.5000    0.0000 C   0  0  0  0  0  0  0  0  0  0  0  0
    8.5991   -0.5000    0.0000 C   0  0  0  0  0  0  0  0  0  0  0  0
    6.8671   -0.5000    0.0000 C   0  0  3  0  0  0  0  0  0  0  0  0
    8.5991   -3.5000    0.0000 C   0  0  0  0  0  0  0  0  0  0  0  0
    7.7331   -2.0000    0.0000 C   0  0  0  0  0  0  0  0  0  0  0  0
   12.0632   -3.5000    0.0000 C   0  0  0  0  0  0  0  0  0  0  0  0
   12.9292   -2.0000    0.0000 C   0  0  0  0  0  0  0  0  0  0  0  0
    6.0010   -1.0000    0.0000 C   0  0  0  0  0  0  0  0  0  0  0  0
    7.7331   -1.0000    0.0000 C   0  0  0  0  0  0  0  0  0  0  0  0
    5.1350   -0.5000    0.0000 C   0  0  3  0  0  0  0  0  0  0  0  0
   11.1972    1.0000    0.0000 C   0  0  0  0  0  0  0  0  0  0  0  0
    9.4651    1.0000    0.0000 C   0  0  0  0  0  0  0  0  0  0  0  0
    4.2690   -1.0000    0.0000 C   0  0  0  0  0  0  0  0  0  0  0  0
   11.1972    2.0000    0.0000 C   0  0  0  0  0  0  0  0  0  0  0  0
    9.4651    2.0000    0.0000 C   0  0  0  0  0  0  0  0  0  0  0  0
   10.3312    2.5000    0.0000 C   0  0  0  0  0  0  0  0  0  0  0  0
   13.7953   -0.5000    0.0000 C   0  0  0  0  0  0  0  0  0  0  0  0
    3.4030   -0.5000    0.0000 C   0  0  0  0  0  0  0  0  0  0  0  0
    8.5991   -1.8800    0.0000 H   0  0  0  0  0  0  0  0  0  0  0  0
   12.6002   -2.8100    0.0000 H   0  0  0  0  0  0  0  0  0  0  0  0
   12.4617   -0.0251    0.0000 H   0  0  0  0  0  0  0  0  0  0  0  0
   11.6647   -0.0251    0.0000 H   0  0  0  0  0  0  0  0  0  0  0  0
    8.5991    0.1200    0.0000 H   0  0  0  0  0  0  0  0  0  0  0  0
    6.1309   -0.0750    0.0000 H   0  0  0  0  0  0  0  0  0  0  0  0
    5.6025   -1.4750    0.0000 H   0  0  0  0  0  0  0  0  0  0  0  0
    6.3996   -1.4750    0.0000 H   0  0  0  0  0  0  0  0  0  0  0  0
    8.0431   -1.4631    0.0000 H   0  0  0  0  0  0  0  0  0  0  0  0
    7.1962   -1.6900    0.0000 H   0  0  0  0  0  0  0  0  0  0  0  0
    7.4231   -2.5369    0.0000 H   0  0  0  0  0  0  0  0  0  0  0  0
    7.9791   -3.5000    0.0000 H   0  0  0  0  0  0  0  0  0  0  0  0
    8.5991   -4.1200    0.0000 H   0  0  0  0  0  0  0  0  0  0  0  0
    9.2191   -3.5000    0.0000 H   0  0  0  0  0  0  0  0  0  0  0  0
   13.2392   -2.5369    0.0000 H   0  0  0  0  0  0  0  0  0  0  0  0
   13.4662   -1.6900    0.0000 H   0  0  0  0  0  0  0  0  0  0  0  0
   12.6192   -1.4631    0.0000 H   0  0  0  0  0  0  0  0  0  0  0  0
   11.4432   -3.5000    0.0000 H   0  0  0  0  0  0  0  0  0  0  0  0
   12.0632   -4.1200    0.0000 H   0  0  0  0  0  0  0  0  0  0  0  0
   12.6832   -3.5000    0.0000 H   0  0  0  0  0  0  0  0  0  0  0  0
    7.7331   -1.6200    0.0000 H   0  0  0  0  0  0  0  0  0  0  0  0
    5.8711   -0.0750    0.0000 H   0  0  0  0  0  0  0  0  0  0  0  0
   11.7341    0.6900    0.0000 H   0  0  0  0  0  0  0  0  0  0  0  0
    8.9282    0.6900    0.0000 H   0  0  0  0  0  0  0  0  0  0  0  0
    3.8705   -1.4750    0.0000 H   0  0  0  0  0  0  0  0  0  0  0  0
    4.6675   -1.4750    0.0000 H   0  0  0  0  0  0  0  0  0  0  0  0
   11.7341    2.3100    0.0000 H   0  0  0  0  0  0  0  0  0  0  0  0
    8.9282    2.3100    0.0000 H   0  0  0  0  0  0  0  0  0  0  0  0
    6.3301    0.8100    0.0000 H   0  0  0  0  0  0  0  0  0  0  0  0
    4.5981    0.8100    0.0000 H   0  0  0  0  0  0  0  0  0  0  0  0
   14.1053   -1.0369    0.0000 H   0  0  0  0  0  0  0  0  0  0  0  0
   14.3322   -0.1900    0.0000 H   0  0  0  0  0  0  0  0  0  0  0  0
   13.4853    0.0369    0.0000 H   0  0  0  0  0  0  0  0  0  0  0  0
    2.0000   -0.6900    0.0000 H   0  0  0  0  0  0  0  0  0  0  0  0
  1 31  1  0  0  0  0
  2 15  1  0  0  0  0
  2 32  1  0  0  0  0
  3 18  1  0  0  0  0
  3 62  1  0  0  0  0
  4 25  1  0  0  0  0
  4 63  1  0  0  0  0
  5 33  1  0  0  0  0
  5 67  1  0  0  0  0
  6 33  2  0  0  0  0
  7  8  2  0  0  0  0
  7  9  1  0  0  0  0
  8 10  1  0  0  0  0
  8 14  1  0  0  0  0
  9 11  2  0  0  0  0
  9 13  1  0  0  0  0
 10 12  2  0  0  0  0
 10 15  1  0  0  0  0
 11 12  1  0  0  0  0
 11 17  1  0  0  0  0
 12 16  1  0  0  0  0
 13 19  1  0  0  0  0
 13 20  1  0  0  0  0
 13 34  1  0  0  0  0
 14 21  1  0  0  0  0
 14 22  1  0  0  0  0
 14 35  1  0  0  0  0
 15 36  1  0  0  0  0
 15 37  1  0  0  0  0
 16 26  2  0  0  0  0
 16 27  1  0  0  0  0
 17 24  2  3  0  0  0
 17 38  1  0  0  0  0
 18 23  1  0  0  0  0
 18 24  1  0  0  0  0
 18 39  1  0  0  0  0
 19 45  1  0  0  0  0
 19 46  1  0  0  0  0
 19 47  1  0  0  0  0
 20 42  1  0  0  0  0
 20 43  1  0  0  0  0
 20 44  1  0  0  0  0
 21 51  1  0  0  0  0
 21 52  1  0  0  0  0
 21 53  1  0  0  0  0
 22 48  1  0  0  0  0
 22 49  1  0  0  0  0
 22 50  1  0  0  0  0
 23 25  1  0  0  0  0
 23 40  1  0  0  0  0
 23 41  1  0  0  0  0
 24 54  1  0  0  0  0
 25 28  1  0  0  0  0
 25 55  1  0  0  0  0
 26 29  1  0  0  0  0
 26 56  1  0  0  0  0
 27 30  2  0  0  0  0
 27 57  1  0  0  0  0
 28 33  1  0  0  0  0
 28 58  1  0  0  0  0
 28 59  1  0  0  0  0
 29 31  2  0  0  0  0
 29 60  1  0  0  0  0
 30 31  1  0  0  0  0
 30 61  1  0  0  0  0
 32 64  1  0  0  0  0
 32 65  1  0  0  0  0
 32 66  1  0  0  0  0
M  END
> <PUBCHEM_COMPOUND_CID>
2676

> <PUBCHEM_COMPOUND_CANONICALIZED>
1

> <PUBCHEM_CACTVS_COMPLEXITY>
620

> <PUBCHEM_CACTVS_HBOND_ACCEPTOR>
7

> <PUBCHEM_CACTVS_HBOND_DONOR>
3

> <PUBCHEM_CACTVS_ROTATABLE_BOND>
11

> <PUBCHEM_CACTVS_SUBSKEYS>
AAADcfB6OQAAAAAAAAAAAAAAAAAAAAAAAAA8QAAAAAAAAAABwAAAHwAACAAADRyhngoyiJIIFgCoAyTyTACCgCAhACAImCEwTJgINnbAsZmEcAhn4AHI+AeY/OdOgAAAAAAAAAAAAAAAAAAAAAAAAAAAAA==

> <PUBCHEM_IUPAC_OPENEYE_NAME>
7-[4-(4-fluorophenyl)-2,6-diisopropyl-5-(methoxymethyl)-3-pyridyl]-3,5-dihydroxy-hept-6-enoic acid

> <PUBCHEM_IUPAC_CAS_NAME>
7-[4-(4-fluorophenyl)-5-(methoxymethyl)-2,6-di(propan-2-yl)-3-pyridinyl]-3,5-dihydroxy-6-heptenoic acid

> <PUBCHEM_IUPAC_NAME>
7-[4-(4-fluorophenyl)-5-(methoxymethyl)-2,6-di(propan-2-yl)pyridin-3-yl]-3,5-dihydroxyhept-6-enoic acid

> <PUBCHEM_IUPAC_SYSTEMATIC_NAME>
7-[4-(4-fluorophenyl)-5-(methoxymethyl)-2,6-di(propan-2-yl)pyridin-3-yl]-3,5-bis(oxidanyl)hept-6-enoic acid

> <PUBCHEM_IUPAC_TRADITIONAL_NAME>
7-[4-(4-fluorophenyl)-2,6-diisopropyl-5-(methoxymethyl)-3-pyridyl]-3,5-dihydroxy-hept-6-enoic acid

> <PUBCHEM_IUPAC_INCHI>
InChI=1S/C26H34FNO5/c1-15(2)25-21(11-10-19(29)12-20(30)13-23(31)32)24(17-6-8-18(27)9-7-17)22(14-33-5)26(28-25)16(3)4/h6-11,15-16,19-20,29-30H,12-14H2,1-5H3,(H,31,32)

> <PUBCHEM_IUPAC_INCHIKEY>
SEERZIQQUAZTOL-UHFFFAOYSA-N

> <PUBCHEM_XLOGP3_AA>
3.6

> <PUBCHEM_EXACT_MASS>
459.242101

> <PUBCHEM_MOLECULAR_FORMULA>
C26H34FNO5

> <PUBCHEM_MOLECULAR_WEIGHT>
459.550263

> <PUBCHEM_OPENEYE_CAN_SMILES>
CC(C)C1=C(C(=C(C(=N1)C(C)C)C=CC(CC(CC(=O)O)O)O)C2=CC=C(C=C2)F)COC

> <PUBCHEM_OPENEYE_ISO_SMILES>
CC(C)C1=C(C(=C(C(=N1)C(C)C)C=CC(CC(CC(=O)O)O)O)C2=CC=C(C=C2)F)COC

> <PUBCHEM_CACTVS_TPSA>
99.9

> <PUBCHEM_MONOISOTOPIC_WEIGHT>
459.242101

> <PUBCHEM_TOTAL_CHARGE>
0

> <PUBCHEM_HEAVY_ATOM_COUNT>
33

> <PUBCHEM_ATOM_DEF_STEREO_COUNT>
0

> <PUBCHEM_ATOM_UDEF_STEREO_COUNT>
2

> <PUBCHEM_BOND_DEF_STEREO_COUNT>
0

> <PUBCHEM_BOND_UDEF_STEREO_COUNT>
1

> <PUBCHEM_ISOTOPIC_ATOM_COUNT>
0

> <PUBCHEM_COMPONENT_COUNT>
1

> <PUBCHEM_CACTVS_TAUTO_COUNT>
4

> <PUBCHEM_COORDINATE_TYPE>
1
5
255

> <PUBCHEM_BONDANNOTATIONS>
10  12  8
11  12  8
16  26  8
16  27  8
17  24  1
18  39  3
25  55  3
26  29  8
27  30  8
29  31  8
30  31  8
7  8  8
7  9  8
8  10  8
9  11  8

$$$$
