2891
  -OEChem-12171207582D

182187  0     1  0  0  0  0  0999 V2000
    7.2438    1.8817    0.0000 Co  0  2  0  0  0  0  0  0  0  0  0  0
    4.8914   -5.9248    0.0000 P   0  0  3  0  0  0  0  0  0  0  0  0
    8.6082   -4.7945    0.0000 O   0  0  0  0  0  0  0  0  0  0  0  0
    3.2166    2.6458    0.0000 O   0  0  0  0  0  0  0  0  0  0  0  0
    3.8026    1.8720    0.0000 O   0  0  0  0  0  0  0  0  0  0  0  0
    7.9632    5.8987    0.0000 O   0  0  0  0  0  0  0  0  0  0  0  0
    6.3540   -3.7250    0.0000 O   0  0  0  0  0  0  0  0  0  0  0  0
    5.3168   -3.1586    0.0000 O   0  0  0  0  0  0  0  0  0  0  0  0
    5.2258    6.9665    0.0000 O   0  0  0  0  0  0  0  0  0  0  0  0
    6.3500   -5.9238    0.0000 O   0  0  0  0  0  0  0  0  0  0  0  0
   11.9836   -0.5233    0.0000 O   0  0  0  0  0  0  0  0  0  0  0  0
   12.3516    3.8513    0.0000 O   0  0  0  0  0  0  0  0  0  0  0  0
    9.3326   -6.7191    0.0000 O   0  0  0  0  0  0  0  0  0  0  0  0
    4.1460   -5.3482    0.0000 O   0  0  0  0  0  0  0  0  0  0  0  0
    4.8244   -6.9225    0.0000 O   0  0  0  0  0  0  0  0  0  0  0  0
    4.3345   -6.7554    0.0000 O   0  0  0  0  0  0  0  0  0  0  0  0
    6.3511    2.7265    0.0000 N   0  0  0  0  0  0  0  0  0  0  0  0
    6.2696    0.9555    0.0000 N   0  5  0  0  0  0  0  0  0  0  0  0
    8.1233    2.8092    0.0000 N   0  0  0  0  0  0  0  0  0  0  0  0
    8.0613    1.0577    0.0000 N   0  0  0  0  0  0  0  0  0  0  0  0
    8.3603   -1.6098    0.0000 N   0  0  0  0  0  0  0  0  0  0  0  0
    8.3532   -3.1346    0.0000 N   0  0  0  0  0  0  0  0  0  0  0  0
    9.1873    1.5617    0.0000 N   0  0  0  0  0  0  0  0  0  0  0  0
    2.5760    4.2550    0.0000 N   0  0  0  0  0  0  0  0  0  0  0  0
    2.4374    0.8060    0.0000 N   0  0  0  0  0  0  0  0  0  0  0  0
    9.5513    6.5900    0.0000 N   0  0  0  0  0  0  0  0  0  0  0  0
    3.6538   -2.9040    0.0000 N   0  0  0  0  0  0  0  0  0  0  0  0
    3.5149    6.6972    0.0000 N   0  0  0  0  0  0  0  0  0  0  0  0
   11.8329    1.2022    0.0000 N   0  0  0  0  0  0  0  0  0  0  0  0
   12.1184    5.5676    0.0000 N   0  0  0  0  0  0  0  0  0  0  0  0
    5.4857    2.6028    0.0000 C   0  0  3  0  0  0  0  0  0  0  0  0
    5.4455    1.0381    0.0000 C   0  0  3  0  0  0  0  0  0  0  0  0
    5.0748    3.3854    0.0000 C   0  0  3  0  0  0  0  0  0  0  0  0
    6.4544    3.6128    0.0000 C   0  0  0  0  0  0  0  0  0  0  0  0
    5.0334    0.2957    0.0000 C   0  0  3  0  0  0  0  0  0  0  0  0
    6.4141    0.1108    0.0000 C   0  0  0  0  0  0  0  0  0  0  0  0
    5.6510   -0.3219    0.0000 C   0  0  3  0  0  0  0  0  0  0  0  0
    5.6923    4.0030    0.0000 C   0  0  3  0  0  0  0  0  0  0  0  0
    8.2438    1.8930    0.0000 C   0  5  0  0  0  0  0  0  0  0  0  0
    7.9994    3.6334    0.0000 C   0  0  0  0  0  0  0  0  0  0  0  0
    7.9581    0.1304    0.0000 C   0  0  0  0  0  0  0  0  0  0  0  0
    8.9474    1.1610    0.0000 C   0  0  0  0  0  0  0  0  0  0  0  0
    8.9474    2.6853    0.0000 C   0  0  0  0  0  0  0  0  0  0  0  0
    4.5118    2.3758    0.0000 C   0  0  0  0  0  0  0  0  0  0  0  0
    7.2372    4.0238    0.0000 C   0  0  0  0  0  0  0  0  0  0  0  0
    7.1753   -0.2806    0.0000 C   0  0  0  0  0  0  0  0  0  0  0  0
    8.7615    4.0649    0.0000 C   0  0  3  0  0  0  0  0  0  0  0  0
    9.3583    0.3782    0.0000 C   0  0  0  0  0  0  0  0  0  0  0  0
    8.7408   -0.2393    0.0000 C   0  0  3  0  0  0  0  0  0  0  0  0
    9.3789    3.4474    0.0000 C   0  0  3  0  0  0  0  0  0  0  0  0
    9.3790    1.9232    0.0000 C   0  0  0  0  0  0  0  0  0  0  0  0
    4.2900    4.0051    0.0000 C   0  0  0  0  0  0  0  0  0  0  0  0
    9.2551   -1.9052    0.0000 C   0  0  0  0  0  0  0  0  0  0  0  0
    4.2429    2.8305    0.0000 C   0  0  0  0  0  0  0  0  0  0  0  0
    7.8028   -2.3696    0.0000 C   0  0  0  0  0  0  0  0  0  0  0  0
    4.0432    0.1568    0.0000 C   0  0  0  0  0  0  0  0  0  0  0  0
    5.5244   -1.2557    0.0000 C   0  0  0  0  0  0  0  0  0  0  0  0
    5.5368    4.9909    0.0000 C   0  0  0  0  0  0  0  0  0  0  0  0
    4.7034   -0.6415    0.0000 C   0  0  0  0  0  0  0  0  0  0  0  0
    7.1871    5.0225    0.0000 C   0  0  0  0  0  0  0  0  0  0  0  0
    9.3559    4.8690    0.0000 C   0  0  0  0  0  0  0  0  0  0  0  0
    9.2508   -2.8475    0.0000 C   0  0  0  0  0  0  0  0  0  0  0  0
    7.1352   -1.2798    0.0000 C   0  0  0  0  0  0  0  0  0  0  0  0
    9.7067   -0.4981    0.0000 C   0  0  0  0  0  0  0  0  0  0  0  0
   10.3698    3.5820    0.0000 C   0  0  0  0  0  0  0  0  0  0  0  0
    8.1804    4.8788    0.0000 C   0  0  0  0  0  0  0  0  0  0  0  0
   10.2466    0.8377    0.0000 C   0  0  0  0  0  0  0  0  0  0  0  0
   10.3044   -0.2756    0.0000 C   0  0  0  0  0  0  0  0  0  0  0  0
   10.0733   -1.4378    0.0000 C   0  0  0  0  0  0  0  0  0  0  0  0
    3.3609    3.6353    0.0000 C   0  0  0  0  0  0  0  0  0  0  0  0
    4.6524   -1.6130    0.0000 C   0  0  0  0  0  0  0  0  0  0  0  0
    4.6036    5.3501    0.0000 C   0  0  0  0  0  0  0  0  0  0  0  0
    3.4277    0.9449    0.0000 C   0  0  0  0  0  0  0  0  0  0  0  0
    8.0579   -4.0295    0.0000 C   0  0  3  0  0  0  0  0  0  0  0  0
   10.4138    0.2090    0.0000 C   0  0  0  0  0  0  0  0  0  0  0  0
   10.0647   -3.3225    0.0000 C   0  0  0  0  0  0  0  0  0  0  0  0
   10.7487    4.5075    0.0000 C   0  0  0  0  0  0  0  0  0  0  0  0
    8.9568    5.7859    0.0000 C   0  0  0  0  0  0  0  0  0  0  0  0
   10.8873   -1.9127    0.0000 C   0  0  0  0  0  0  0  0  0  0  0  0
   10.8829   -2.8551    0.0000 C   0  0  0  0  0  0  0  0  0  0  0  0
    7.1602   -4.3166    0.0000 C   0  0  3  0  0  0  0  0  0  0  0  0
    4.5258   -2.5468    0.0000 C   0  0  0  0  0  0  0  0  0  0  0  0
    4.4481    6.3380    0.0000 C   0  0  0  0  0  0  0  0  0  0  0  0
    7.1559   -5.2589    0.0000 C   0  0  3  0  0  0  0  0  0  0  0  0
   11.4101    0.2960    0.0000 C   0  0  0  0  0  0  0  0  0  0  0  0
   11.7396    4.6421    0.0000 C   0  0  0  0  0  0  0  0  0  0  0  0
    8.0508   -5.5543    0.0000 C   0  0  3  0  0  0  0  0  0  0  0  0
   11.7556   -1.4167    0.0000 C   0  0  0  0  0  0  0  0  0  0  0  0
   11.7466   -3.3591    0.0000 C   0  0  0  0  0  0  0  0  0  0  0  0
    8.3554   -6.5068    0.0000 C   0  0  0  0  0  0  0  0  0  0  0  0
    3.5272   -3.8379    0.0000 C   0  0  0  0  0  0  0  0  0  0  0  0
    4.2726   -4.4144    0.0000 C   0  0  3  0  0  0  0  0  0  0  0  0
    5.1980   -4.0353    0.0000 C   0  0  0  0  0  0  0  0  0  0  0  0
    4.6254    1.2617    0.0000 H   0  0  0  0  0  0  0  0  0  0  0  0
    4.7636   -0.5104    0.0000 H   0  0  0  0  0  0  0  0  0  0  0  0
    6.3807    4.5016    0.0000 H   0  0  0  0  0  0  0  0  0  0  0  0
    4.3711    2.9797    0.0000 H   0  0  0  0  0  0  0  0  0  0  0  0
    3.9080    2.2352    0.0000 H   0  0  0  0  0  0  0  0  0  0  0  0
    4.6525    1.7720    0.0000 H   0  0  0  0  0  0  0  0  0  0  0  0
    8.4481   -1.0373    0.0000 H   0  0  0  0  0  0  0  0  0  0  0  0
    9.6505    4.2528    0.0000 H   0  0  0  0  0  0  0  0  0  0  0  0
    9.9990    1.9232    0.0000 H   0  0  0  0  0  0  0  0  0  0  0  0
    4.7529    4.4176    0.0000 H   0  0  0  0  0  0  0  0  0  0  0  0
    3.9641    4.5326    0.0000 H   0  0  0  0  0  0  0  0  0  0  0  0
    3.8988    3.3463    0.0000 H   0  0  0  0  0  0  0  0  0  0  0  0
    3.7271    2.4865    0.0000 H   0  0  0  0  0  0  0  0  0  0  0  0
    4.5869    2.3147    0.0000 H   0  0  0  0  0  0  0  0  0  0  0  0
    7.1829   -2.3668    0.0000 H   0  0  0  0  0  0  0  0  0  0  0  0
    3.4956   -0.1342    0.0000 H   0  0  0  0  0  0  0  0  0  0  0  0
    4.2346   -0.4330    0.0000 H   0  0  0  0  0  0  0  0  0  0  0  0
    5.6562   -1.8615    0.0000 H   0  0  0  0  0  0  0  0  0  0  0  0
    6.1439   -1.2310    0.0000 H   0  0  0  0  0  0  0  0  0  0  0  0
    6.1567    4.9794    0.0000 H   0  0  0  0  0  0  0  0  0  0  0  0
    5.6557    5.5994    0.0000 H   0  0  0  0  0  0  0  0  0  0  0  0
    4.5052   -0.0540    0.0000 H   0  0  0  0  0  0  0  0  0  0  0  0
    4.1160   -0.8397    0.0000 H   0  0  0  0  0  0  0  0  0  0  0  0
    4.9016   -1.2290    0.0000 H   0  0  0  0  0  0  0  0  0  0  0  0
    7.8063    5.0536    0.0000 H   0  0  0  0  0  0  0  0  0  0  0  0
    7.1560    5.6417    0.0000 H   0  0  0  0  0  0  0  0  0  0  0  0
    6.5679    4.9915    0.0000 H   0  0  0  0  0  0  0  0  0  0  0  0
    9.7829    4.4195    0.0000 H   0  0  0  0  0  0  0  0  0  0  0  0
    9.8728    5.2115    0.0000 H   0  0  0  0  0  0  0  0  0  0  0  0
    6.5157   -1.2550    0.0000 H   0  0  0  0  0  0  0  0  0  0  0  0
    7.1104   -1.8993    0.0000 H   0  0  0  0  0  0  0  0  0  0  0  0
    7.7548   -1.3046    0.0000 H   0  0  0  0  0  0  0  0  0  0  0  0
    9.4447   -1.0600    0.0000 H   0  0  0  0  0  0  0  0  0  0  0  0
   10.2146   -0.8537    0.0000 H   0  0  0  0  0  0  0  0  0  0  0  0
   10.3453    2.9625    0.0000 H   0  0  0  0  0  0  0  0  0  0  0  0
   10.9757    3.4503    0.0000 H   0  0  0  0  0  0  0  0  0  0  0  0
    8.6850    5.2390    0.0000 H   0  0  0  0  0  0  0  0  0  0  0  0
    7.8202    5.3834    0.0000 H   0  0  0  0  0  0  0  0  0  0  0  0
    7.6758    4.5185    0.0000 H   0  0  0  0  0  0  0  0  0  0  0  0
   10.5314    0.2870    0.0000 H   0  0  0  0  0  0  0  0  0  0  0  0
   10.7973    1.1225    0.0000 H   0  0  0  0  0  0  0  0  0  0  0  0
    9.9617    1.3884    0.0000 H   0  0  0  0  0  0  0  0  0  0  0  0
    9.9518   -0.7856    0.0000 H   0  0  0  0  0  0  0  0  0  0  0  0
   10.8144   -0.6281    0.0000 H   0  0  0  0  0  0  0  0  0  0  0  0
   10.6569    0.2344    0.0000 H   0  0  0  0  0  0  0  0  0  0  0  0
   10.0762   -0.8178    0.0000 H   0  0  0  0  0  0  0  0  0  0  0  0
    4.5205   -1.0071    0.0000 H   0  0  0  0  0  0  0  0  0  0  0  0
    4.0329   -1.6376    0.0000 H   0  0  0  0  0  0  0  0  0  0  0  0
    3.9837    5.3615    0.0000 H   0  0  0  0  0  0  0  0  0  0  0  0
    4.4847    4.7416    0.0000 H   0  0  0  0  0  0  0  0  0  0  0  0
    8.8980   -3.9004    0.0000 H   0  0  0  0  0  0  0  0  0  0  0  0
   10.5393    0.8161    0.0000 H   0  0  0  0  0  0  0  0  0  0  0  0
    9.8681    0.5033    0.0000 H   0  0  0  0  0  0  0  0  0  0  0  0
   10.0618   -3.9425    0.0000 H   0  0  0  0  0  0  0  0  0  0  0  0
   10.7731    5.1270    0.0000 H   0  0  0  0  0  0  0  0  0  0  0  0
   10.1428    4.6392    0.0000 H   0  0  0  0  0  0  0  0  0  0  0  0
    6.4011   -4.6990    0.0000 H   0  0  0  0  0  0  0  0  0  0  0  0
    2.0000    4.0258    0.0000 H   0  0  0  0  0  0  0  0  0  0  0  0
    2.6655    4.8686    0.0000 H   0  0  0  0  0  0  0  0  0  0  0  0
    2.2050    0.2312    0.0000 H   0  0  0  0  0  0  0  0  0  0  0  0
    2.0558    1.2947    0.0000 H   0  0  0  0  0  0  0  0  0  0  0  0
    7.3127   -6.0944    0.0000 H   0  0  0  0  0  0  0  0  0  0  0  0
    8.8897   -5.6911    0.0000 H   0  0  0  0  0  0  0  0  0  0  0  0
   12.0631   -1.9551    0.0000 H   0  0  0  0  0  0  0  0  0  0  0  0
   12.2939   -1.1092    0.0000 H   0  0  0  0  0  0  0  0  0  0  0  0
   11.4480   -0.8783    0.0000 H   0  0  0  0  0  0  0  0  0  0  0  0
    9.3038    7.1585    0.0000 H   0  0  0  0  0  0  0  0  0  0  0  0
   10.1673    6.5201    0.0000 H   0  0  0  0  0  0  0  0  0  0  0  0
   11.4342   -3.8946    0.0000 H   0  0  0  0  0  0  0  0  0  0  0  0
   12.2821   -3.6715    0.0000 H   0  0  0  0  0  0  0  0  0  0  0  0
   12.0591   -2.8236    0.0000 H   0  0  0  0  0  0  0  0  0  0  0  0
    3.1634   -2.5247    0.0000 H   0  0  0  0  0  0  0  0  0  0  0  0
    3.4184    7.3097    0.0000 H   0  0  0  0  0  0  0  0  0  0  0  0
    3.0326    6.3075    0.0000 H   0  0  0  0  0  0  0  0  0  0  0  0
    5.7864   -3.9746    0.0000 H   0  0  0  0  0  0  0  0  0  0  0  0
    7.7411   -6.5902    0.0000 H   0  0  0  0  0  0  0  0  0  0  0  0
    8.3310   -7.1263    0.0000 H   0  0  0  0  0  0  0  0  0  0  0  0
   12.4505    1.2562    0.0000 H   0  0  0  0  0  0  0  0  0  0  0  0
   11.4773    1.7102    0.0000 H   0  0  0  0  0  0  0  0  0  0  0  0
   12.7328    5.6510    0.0000 H   0  0  0  0  0  0  0  0  0  0  0  0
   11.7390    6.0579    0.0000 H   0  0  0  0  0  0  0  0  0  0  0  0
    2.9366   -3.6492    0.0000 H   0  0  0  0  0  0  0  0  0  0  0  0
    3.2388   -4.3867    0.0000 H   0  0  0  0  0  0  0  0  0  0  0  0
    4.9450   -4.9344    0.0000 H   0  0  0  0  0  0  0  0  0  0  0  0
    9.5215   -7.3097    0.0000 H   0  0  0  0  0  0  0  0  0  0  0  0
    5.4330   -4.6090    0.0000 H   0  0  0  0  0  0  0  0  0  0  0  0
    5.7717   -3.8002    0.0000 H   0  0  0  0  0  0  0  0  0  0  0  0
    4.9629   -3.4616    0.0000 H   0  0  0  0  0  0  0  0  0  0  0  0
    5.3394   -7.2678    0.0000 H   0  0  0  0  0  0  0  0  0  0  0  0
  2 10  1  0  0  0  0
  2 14  1  0  0  0  0
  2 15  1  0  0  0  0
  2 16  2  0  0  0  0
  3 74  1  0  0  0  0
  3 87  1  0  0  0  0
  4 70  2  0  0  0  0
  5 73  2  0  0  0  0
  6 78  2  0  0  0  0
  7 81  1  0  0  0  0
  7168  1  0  0  0  0
  8 82  2  0  0  0  0
  9 83  2  0  0  0  0
 10 84  1  0  0  0  0
 11 85  2  0  0  0  0
 12 86  2  0  0  0  0
 13 90  1  0  0  0  0
 13178  1  0  0  0  0
 14 92  1  0  0  0  0
 15182  1  0  0  0  0
 17 31  1  0  0  0  0
 17 34  2  0  0  0  0
 18 32  1  0  0  0  0
 18 36  1  0  0  0  0
 19 40  1  0  0  0  0
 19 43  2  0  0  0  0
 20 41  2  0  0  0  0
 20 42  1  0  0  0  0
 21 53  1  0  0  0  0
 21 55  2  0  0  0  0
 22 55  1  0  0  0  0
 22 62  1  0  0  0  0
 22 74  1  0  0  0  0
 23 39  3  0  0  0  0
 24 70  1  0  0  0  0
 24151  1  0  0  0  0
 24152  1  0  0  0  0
 25 73  1  0  0  0  0
 25153  1  0  0  0  0
 25154  1  0  0  0  0
 26 78  1  0  0  0  0
 26160  1  0  0  0  0
 26161  1  0  0  0  0
 27 82  1  0  0  0  0
 27 91  1  0  0  0  0
 27165  1  0  0  0  0
 28 83  1  0  0  0  0
 28166  1  0  0  0  0
 28167  1  0  0  0  0
 29 85  1  0  0  0  0
 29171  1  0  0  0  0
 29172  1  0  0  0  0
 30 86  1  0  0  0  0
 30173  1  0  0  0  0
 30174  1  0  0  0  0
 31 32  1  0  0  0  0
 31 33  1  0  0  0  0
 31 44  1  0  0  0  0
 32 35  1  0  0  0  0
 32 94  1  0  0  0  0
 33 38  1  0  0  0  0
 33 52  1  0  0  0  0
 33 54  1  0  0  0  0
 34 38  1  0  0  0  0
 34 45  1  0  0  0  0
 35 37  1  0  0  0  0
 35 56  1  0  0  0  0
 35 95  1  0  0  0  0
 36 37  1  0  0  0  0
 36 46  2  3  0  0  0
 37 57  1  0  0  0  0
 37 59  1  0  0  0  0
 38 58  1  0  0  0  0
 38 96  1  0  0  0  0
 40 45  2  3  0  0  0
 40 47  1  0  0  0  0
 41 46  1  0  0  0  0
 41 49  1  0  0  0  0
 42 48  1  0  0  0  0
 42 51  2  3  0  0  0
 43 50  1  0  0  0  0
 43 51  1  0  0  0  0
 44 97  1  0  0  0  0
 44 98  1  0  0  0  0
 44 99  1  0  0  0  0
 45 60  1  0  0  0  0
 46 63  1  0  0  0  0
 47 50  1  0  0  0  0
 47 61  1  0  0  0  0
 47 66  1  0  0  0  0
 48 49  1  0  0  0  0
 48 67  1  0  0  0  0
 48 68  1  0  0  0  0
 49 64  1  0  0  0  0
 49100  1  0  0  0  0
 50 65  1  0  0  0  0
 50101  1  0  0  0  0
 51102  1  0  0  0  0
 52 70  1  0  0  0  0
 52103  1  0  0  0  0
 52104  1  0  0  0  0
 53 62  2  0  0  0  0
 53 69  1  0  0  0  0
 54105  1  0  0  0  0
 54106  1  0  0  0  0
 54107  1  0  0  0  0
 55108  1  0  0  0  0
 56 73  1  0  0  0  0
 56109  1  0  0  0  0
 56110  1  0  0  0  0
 57 71  1  0  0  0  0
 57111  1  0  0  0  0
 57112  1  0  0  0  0
 58 72  1  0  0  0  0
 58113  1  0  0  0  0
 58114  1  0  0  0  0
 59115  1  0  0  0  0
 59116  1  0  0  0  0
 59117  1  0  0  0  0
 60118  1  0  0  0  0
 60119  1  0  0  0  0
 60120  1  0  0  0  0
 61 78  1  0  0  0  0
 61121  1  0  0  0  0
 61122  1  0  0  0  0
 62 76  1  0  0  0  0
 63123  1  0  0  0  0
 63124  1  0  0  0  0
 63125  1  0  0  0  0
 64 75  1  0  0  0  0
 64126  1  0  0  0  0
 64127  1  0  0  0  0
 65 77  1  0  0  0  0
 65128  1  0  0  0  0
 65129  1  0  0  0  0
 66130  1  0  0  0  0
 66131  1  0  0  0  0
 66132  1  0  0  0  0
 67133  1  0  0  0  0
 67134  1  0  0  0  0
 67135  1  0  0  0  0
 68136  1  0  0  0  0
 68137  1  0  0  0  0
 68138  1  0  0  0  0
 69 79  2  0  0  0  0
 69139  1  0  0  0  0
 71 82  1  0  0  0  0
 71140  1  0  0  0  0
 71141  1  0  0  0  0
 72 83  1  0  0  0  0
 72142  1  0  0  0  0
 72143  1  0  0  0  0
 74 81  1  0  0  0  0
 74144  1  0  0  0  0
 75 85  1  0  0  0  0
 75145  1  0  0  0  0
 75146  1  0  0  0  0
 76 80  2  0  0  0  0
 76147  1  0  0  0  0
 77 86  1  0  0  0  0
 77148  1  0  0  0  0
 77149  1  0  0  0  0
 79 80  1  0  0  0  0
 79 88  1  0  0  0  0
 80 89  1  0  0  0  0
 81 84  1  0  0  0  0
 81150  1  0  0  0  0
 84 87  1  0  0  0  0
 84155  1  0  0  0  0
 87 90  1  0  0  0  0
 87156  1  0  0  0  0
 88157  1  0  0  0  0
 88158  1  0  0  0  0
 88159  1  0  0  0  0
 89162  1  0  0  0  0
 89163  1  0  0  0  0
 89164  1  0  0  0  0
 90169  1  0  0  0  0
 90170  1  0  0  0  0
 91 92  1  0  0  0  0
 91175  1  0  0  0  0
 91176  1  0  0  0  0
 92 93  1  0  0  0  0
 92177  1  0  0  0  0
 93179  1  0  0  0  0
 93180  1  0  0  0  0
 93181  1  0  0  0  0
M  CHG  3   1   2  18  -1  39  -1
M  END
> <PUBCHEM_COMPOUND_CID>
2891

> <PUBCHEM_COMPOUND_CANONICALIZED>
1

> <PUBCHEM_CACTVS_COMPLEXITY>
3220

> <PUBCHEM_CACTVS_HBOND_ACCEPTOR>
21

> <PUBCHEM_CACTVS_HBOND_DONOR>
10

> <PUBCHEM_CACTVS_ROTATABLE_BOND>
16

> <PUBCHEM_CACTVS_SUBSKEYS>
AAADcfB//AIAAAAQAAAAAAAAAAAAAWLFiRAwQIEAAAAQAFgB8AAAHgAQCCAAD7zhngY30LfMFxC4QyVzdICCgC0xEqAB2KE4dJiLeLLAmZGeYAhvlgLbyCf8ucKfiAAAQAAQACAQAACAACAAQAAAAAAAAA==

> <PUBCHEM_IUPAC_OPENEYE_NAME>
cobaltous;[5-(5,6-dimethylbenzimidazol-1-yl)-4-hydroxy-2-(hydroxymethyl)tetrahydrofuran-3-yl] [1-methyl-2-[3-[2,13,18-tris(2-amino-2-oxo-ethyl)-7,12,17-tris(3-amino-3-oxo-propyl)-3,5,8,8,13,15,18,19-octamethyl-2,7,12,17-tetrahydro-1H-corrin-21-id-3-yl]propanoylamino]ethyl] hydrogen phosphate;cyanide

> <PUBCHEM_IUPAC_CAS_NAME>
cobalt(2+);[5-(5,6-dimethyl-1-benzimidazolyl)-4-hydroxy-2-(hydroxymethyl)-3-oxolanyl] 1-[[1-oxo-3-[2,13,18-tris(2-amino-2-oxoethyl)-7,12,17-tris(3-amino-3-oxopropyl)-3,5,8,8,13,15,18,19-octamethyl-2,7,12,17-tetrahydro-1H-corrin-21-id-3-yl]propyl]amino]propan-2-yl hydrogen phosphate;cyanide

> <PUBCHEM_IUPAC_NAME>
cobalt(2+);[5-(5,6-dimethylbenzimidazol-1-yl)-4-hydroxy-2-(hydroxymethyl)oxolan-3-yl] 1-[3-[2,13,18-tris(2-amino-2-oxoethyl)-7,12,17-tris(3-amino-3-oxopropyl)-3,5,8,8,13,15,18,19-octamethyl-2,7,12,17-tetrahydro-1H-corrin-21-id-3-yl]propanoylamino]propan-2-yl hydrogen phosphate;cyanide

> <PUBCHEM_IUPAC_SYSTEMATIC_NAME>
cobalt(2+);[5-(5,6-dimethylbenzimidazol-1-yl)-2-(hydroxymethyl)-4-oxidanyl-oxolan-3-yl] 1-[3-[2,13,18-tris(2-azanyl-2-oxidanylidene-ethyl)-7,12,17-tris(3-azanyl-3-oxidanylidene-propyl)-3,5,8,8,13,15,18,19-octamethyl-2,7,12,17-tetrahydro-1H-corrin-21-id-3-yl]propanoylamino]propan-2-yl hydrogen phosphate;cyanide

> <PUBCHEM_IUPAC_TRADITIONAL_NAME>
cobaltous;[5-(5,6-dimethylbenzimidazol-1-yl)-4-hydroxy-2-methylol-tetrahydrofuran-3-yl] [1-methyl-2-[3-[2,13,18-tris(2-amino-2-keto-ethyl)-7,12,17-tris(3-amino-3-keto-propyl)-3,5,8,8,13,15,18,19-octamethyl-2,7,12,17-tetrahydro-1H-corrin-21-id-3-yl]propanoylamino]ethyl] hydrogen phosphate;cyanide

> <PUBCHEM_IUPAC_INCHI>
InChI=1S/C62H90N13O14P.CN.Co/c1-29-20-39-40(21-30(29)2)75(28-70-39)57-52(84)53(41(27-76)87-57)89-90(85,86)88-31(3)26-69-49(83)18-19-59(8)37(22-46(66)80)56-62(11)61(10,25-48(68)82)36(14-17-45(65)79)51(74-62)33(5)55-60(9,24-47(67)81)34(12-15-43(63)77)38(71-55)23-42-58(6,7)35(13-16-44(64)78)50(72-42)32(4)54(59)73-56;1-2;/h20-21,23,28,31,34-37,41,52-53,56-57,76,84H,12-19,22,24-27H2,1-11H3,(H15,63,64,65,66,67,68,69,71,72,73,74,77,78,79,80,81,82,83,85,86);;/q;-1;+2/p-1

> <PUBCHEM_IUPAC_INCHIKEY>
AGVAZMGAQJOSFJ-UHFFFAOYSA-M

> <PUBCHEM_EXACT_MASS>
1355.575225

> <PUBCHEM_MOLECULAR_FORMULA>
C63H89CoN14O14P

> <PUBCHEM_MOLECULAR_WEIGHT>
1356.373117

> <PUBCHEM_OPENEYE_CAN_SMILES>
CC1=CC2=C(C=C1C)N(C=N2)C3C(C(C(O3)CO)OP(=O)(O)OC(C)CNC(=O)CCC4(C(C5C6(C(C(C(=N6)C(=C7C(C(C(=N7)C=C8C(C(C(=N8)C(=C4[N-]5)C)CCC(=O)N)(C)C)CCC(=O)N)(C)CC(=O)N)C)CCC(=O)N)(C)CC(=O)N)C)CC(=O)N)C)O.[C-]#N.[Co+2]

> <PUBCHEM_OPENEYE_ISO_SMILES>
CC1=CC2=C(C=C1C)N(C=N2)C3C(C(C(O3)CO)OP(=O)(O)OC(C)CNC(=O)CCC4(C(C5C6(C(C(C(=N6)C(=C7C(C(C(=N7)C=C8C(C(C(=N8)C(=C4[N-]5)C)CCC(=O)N)(C)C)CCC(=O)N)(C)CC(=O)N)C)CCC(=O)N)(C)CC(=O)N)C)CC(=O)N)C)O.[C-]#N.[Co+2]

> <PUBCHEM_CACTVS_TPSA>
473

> <PUBCHEM_MONOISOTOPIC_WEIGHT>
1355.575225

> <PUBCHEM_TOTAL_CHARGE>
0

> <PUBCHEM_HEAVY_ATOM_COUNT>
93

> <PUBCHEM_ATOM_DEF_STEREO_COUNT>
0

> <PUBCHEM_ATOM_UDEF_STEREO_COUNT>
14

> <PUBCHEM_BOND_DEF_STEREO_COUNT>
0

> <PUBCHEM_BOND_UDEF_STEREO_COUNT>
3

> <PUBCHEM_ISOTOPIC_ATOM_COUNT>
0

> <PUBCHEM_COMPONENT_COUNT>
3

> <PUBCHEM_CACTVS_TAUTO_COUNT>
1000

> <PUBCHEM_NONSTANDARDBOND>
1  17  6
1  18  6
1  19  6
1  20  6
1  21  6
1  39  6

> <PUBCHEM_COORDINATE_TYPE>
1
5
255

> <PUBCHEM_BONDANNOTATIONS>
21  53  8
21  55  8
22  55  8
22  62  8
31  44  3
32  94  3
33  54  3
35  95  3
36  46  1
37  59  3
38  96  3
40  45  1
42  51  1
47  66  3
49  100  3
50  101  3
53  62  8
53  69  8
62  76  8
69  79  8
74  144  3
76  80  8
79  80  8
81  150  3
84  155  3
87  156  3
92  177  3

$$$$
