2951
  -OEChem-12171207582D

 32 34  0     0  0  0  0  0  0999 V2000
    4.7199    0.0332    0.0000 O   0  0  0  0  0  0  0  0  0  0  0  0
    2.0000    4.7759    0.0000 O   0  0  0  0  0  0  0  0  0  0  0  0
    5.5202    4.7759    0.0000 O   0  5  0  0  0  0  0  0  0  0  0  0
    6.3949   -5.0546    0.0000 O   0  5  0  0  0  0  0  0  0  0  0  0
    4.6629   -5.0546    0.0000 O   0  0  0  0  0  0  0  0  0  0  0  0
    4.2601    3.5158    0.0000 N   0  0  0  0  0  0  0  0  0  0  0  0
    4.8479    2.7068    0.0000 N   0  0  0  0  0  0  0  0  0  0  0  0
    3.7601    5.0546    0.0000 N   0  0  0  0  0  0  0  0  0  0  0  0
    5.5289   -4.5546    0.0000 N   0  3  0  0  0  0  0  0  0  0  0  0
    5.5289   -1.5546    0.0000 C   0  0  0  0  0  0  0  0  0  0  0  0
    5.5289   -0.5546    0.0000 C   0  0  0  0  0  0  0  0  0  0  0  0
    5.0289    0.9842    0.0000 C   0  0  0  0  0  0  0  0  0  0  0  0
    3.2601    3.5158    0.0000 C   0  0  0  0  0  0  0  0  0  0  0  0
    6.3379    0.0332    0.0000 C   0  0  0  0  0  0  0  0  0  0  0  0
    4.6629   -2.0546    0.0000 C   0  0  0  0  0  0  0  0  0  0  0  0
    6.3949   -2.0546    0.0000 C   0  0  0  0  0  0  0  0  0  0  0  0
    6.0289    0.9842    0.0000 C   0  0  0  0  0  0  0  0  0  0  0  0
    5.5289   -3.5546    0.0000 C   0  0  0  0  0  0  0  0  0  0  0  0
    4.6629   -3.0546    0.0000 C   0  0  0  0  0  0  0  0  0  0  0  0
    6.3949   -3.0546    0.0000 C   0  0  0  0  0  0  0  0  0  0  0  0
    4.4411    1.7932    0.0000 C   0  0  0  0  0  0  0  0  0  0  0  0
    2.9511    4.4668    0.0000 C   0  0  0  0  0  0  0  0  0  0  0  0
    4.5691    4.4668    0.0000 C   0  0  0  0  0  0  0  0  0  0  0  0
    2.6536    3.3869    0.0000 H   0  0  0  0  0  0  0  0  0  0  0  0
    3.3249    2.8992    0.0000 H   0  0  0  0  0  0  0  0  0  0  0  0
    6.9276   -0.1584    0.0000 H   0  0  0  0  0  0  0  0  0  0  0  0
    4.1259   -1.7446    0.0000 H   0  0  0  0  0  0  0  0  0  0  0  0
    6.9319   -1.7446    0.0000 H   0  0  0  0  0  0  0  0  0  0  0  0
    6.3933    1.4858    0.0000 H   0  0  0  0  0  0  0  0  0  0  0  0
    4.1259   -3.3646    0.0000 H   0  0  0  0  0  0  0  0  0  0  0  0
    6.9319   -3.3646    0.0000 H   0  0  0  0  0  0  0  0  0  0  0  0
    3.8245    1.7284    0.0000 H   0  0  0  0  0  0  0  0  0  0  0  0
  1 11  1  0  0  0  0
  1 12  1  0  0  0  0
  2 22  2  0  0  0  0
  3 23  1  0  0  0  0
  4  9  1  0  0  0  0
  5  9  2  0  0  0  0
  6  7  1  0  0  0  0
  6 13  1  0  0  0  0
  6 23  1  0  0  0  0
  7 21  2  3  0  0  0
  8 22  1  0  0  0  0
  8 23  2  0  0  0  0
  9 18  1  0  0  0  0
 10 11  1  0  0  0  0
 10 15  2  0  0  0  0
 10 16  1  0  0  0  0
 11 14  2  0  0  0  0
 12 17  2  0  0  0  0
 12 21  1  0  0  0  0
 13 22  1  0  0  0  0
 13 24  1  0  0  0  0
 13 25  1  0  0  0  0
 14 17  1  0  0  0  0
 14 26  1  0  0  0  0
 15 19  1  0  0  0  0
 15 27  1  0  0  0  0
 16 20  2  0  0  0  0
 16 28  1  0  0  0  0
 17 29  1  0  0  0  0
 18 19  2  0  0  0  0
 18 20  1  0  0  0  0
 19 30  1  0  0  0  0
 20 31  1  0  0  0  0
 21 32  1  0  0  0  0
M  CHG  3   3  -1   4  -1   9   1
M  END
> <PUBCHEM_COMPOUND_CID>
2951

> <PUBCHEM_COMPOUND_CANONICALIZED>
1

> <PUBCHEM_CACTVS_COMPLEXITY>
536

> <PUBCHEM_CACTVS_HBOND_ACCEPTOR>
6

> <PUBCHEM_CACTVS_HBOND_DONOR>
0

> <PUBCHEM_CACTVS_ROTATABLE_BOND>
3

> <PUBCHEM_CACTVS_SUBSKEYS>
AAADccBzuAAAAAAAAAAAAAAAAAAAASIAAAAwAAAAAAAAAAABwAAAHgAMAAAADAzBmAQxxIIQRECpArVzdwSSCAEkIgA5iAGubNoMZrKEvbuSOSDkyBEI6YeY2fGeCAAAAAAAAAAQAAAAAAAAAAAAAAAAAA==

> <PUBCHEM_IUPAC_OPENEYE_NAME>
3-[[5-(4-nitrophenyl)-2-furyl]methyleneamino]-5-oxo-4H-imidazol-2-olate

> <PUBCHEM_IUPAC_CAS_NAME>
3-[[5-(4-nitrophenyl)-2-furanyl]methylideneamino]-5-oxo-4H-imidazol-2-olate

> <PUBCHEM_IUPAC_NAME>
3-[[5-(4-nitrophenyl)furan-2-yl]methylideneamino]-5-oxo-4H-imidazol-2-olate

> <PUBCHEM_IUPAC_SYSTEMATIC_NAME>
3-[[5-(4-nitrophenyl)furan-2-yl]methylideneamino]-5-oxidanylidene-4H-imidazol-2-olate

> <PUBCHEM_IUPAC_TRADITIONAL_NAME>
4-keto-1-[[5-(4-nitrophenyl)-2-furyl]methyleneamino]-2-imidazolin-2-olate

> <PUBCHEM_IUPAC_INCHI>
InChI=1S/C14H10N4O5/c19-13-8-17(14(20)16-13)15-7-11-5-6-12(23-11)9-1-3-10(4-2-9)18(21)22/h1-7H,8H2,(H,16,19,20)/p-1

> <PUBCHEM_IUPAC_INCHIKEY>
OZOMQRBLCMDCEG-UHFFFAOYSA-M

> <PUBCHEM_XLOGP3>
2.7

> <PUBCHEM_EXACT_MASS>
313.057294

> <PUBCHEM_MOLECULAR_FORMULA>
C14H9N4O5-

> <PUBCHEM_MOLECULAR_WEIGHT>
313.24506

> <PUBCHEM_OPENEYE_CAN_SMILES>
C1C(=O)N=C(N1N=CC2=CC=C(O2)C3=CC=C(C=C3)[N+](=O)[O-])[O-]

> <PUBCHEM_OPENEYE_ISO_SMILES>
C1C(=O)N=C(N1N=CC2=CC=C(O2)C3=CC=C(C=C3)[N+](=O)[O-])[O-]

> <PUBCHEM_CACTVS_TPSA>
127

> <PUBCHEM_MONOISOTOPIC_WEIGHT>
313.057294

> <PUBCHEM_TOTAL_CHARGE>
-1

> <PUBCHEM_HEAVY_ATOM_COUNT>
23

> <PUBCHEM_ATOM_DEF_STEREO_COUNT>
0

> <PUBCHEM_ATOM_UDEF_STEREO_COUNT>
0

> <PUBCHEM_BOND_DEF_STEREO_COUNT>
0

> <PUBCHEM_BOND_UDEF_STEREO_COUNT>
1

> <PUBCHEM_ISOTOPIC_ATOM_COUNT>
0

> <PUBCHEM_COMPONENT_COUNT>
1

> <PUBCHEM_CACTVS_TAUTO_COUNT>
2

> <PUBCHEM_COORDINATE_TYPE>
1
5
255

> <PUBCHEM_BONDANNOTATIONS>
1  11  8
1  12  8
10  15  8
10  16  8
11  14  8
12  17  8
14  17  8
15  19  8
16  20  8
18  19  8
18  20  8
7  21  1

$$$$
