3015
  -OEChem-12171207592D

 53 57  0     1  0  0  0  0  0999 V2000
    8.8846    1.2256    0.0000 Cl  0  0  0  0  0  0  0  0  0  0  0  0
    3.0481    0.7104    0.0000 O   0  0  0  0  0  0  0  0  0  0  0  0
    9.8046   -2.3195    0.0000 O   0  0  0  0  0  0  0  0  0  0  0  0
    2.0000    1.2824    0.0000 O   0  0  0  0  0  0  0  0  0  0  0  0
    7.1526   -0.7744    0.0000 C   0  0  3  0  0  0  0  0  0  0  0  0
    6.2865   -0.2744    0.0000 C   0  0  3  0  0  0  0  0  0  0  0  0
    7.1365   -1.8159    0.0000 C   0  0  3  0  0  0  0  0  0  0  0  0
    4.4865    0.7464    0.0000 C   0  0  3  0  0  0  0  0  0  0  0  0
    5.3926    1.2603    0.0000 C   0  0  3  0  0  0  0  0  0  0  0  0
    6.2865    0.7256    0.0000 C   0  0  3  0  0  0  0  0  0  0  0  0
    8.0345   -2.3437    0.0000 C   0  0  3  0  0  0  0  0  0  0  0  0
    7.1282   -2.8580    0.0000 C   0  0  0  0  0  0  0  0  0  0  0  0
    5.3926   -0.8091    0.0000 C   0  0  0  0  0  0  0  0  0  0  0  0
    4.4865   -0.2952    0.0000 C   0  0  0  0  0  0  0  0  0  0  0  0
    3.7242    1.4472    0.0000 C   0  0  3  0  0  0  0  0  0  0  0  0
    5.1825    2.2742    0.0000 C   0  0  0  0  0  0  0  0  0  0  0  0
    8.0186   -0.2744    0.0000 C   0  0  0  0  0  0  0  0  0  0  0  0
    4.1534    2.3895    0.0000 C   0  0  0  0  0  0  0  0  0  0  0  0
    6.2865   -1.2744    0.0000 C   0  0  0  0  0  0  0  0  0  0  0  0
    7.1526    1.2256    0.0000 C   0  0  0  0  0  0  0  0  0  0  0  0
    3.6167    0.2531    0.0000 C   0  0  0  0  0  0  0  0  0  0  0  0
    8.9366   -1.8228    0.0000 C   0  0  0  0  0  0  0  0  0  0  0  0
    8.0186    0.7256    0.0000 C   0  0  0  0  0  0  0  0  0  0  0  0
    8.9286   -0.7812    0.0000 C   0  0  0  0  0  0  0  0  0  0  0  0
    2.8145    1.8625    0.0000 C   0  0  0  0  0  0  0  0  0  0  0  0
    2.7194    2.8580    0.0000 C   0  0  0  0  0  0  0  0  0  0  0  0
    6.2913   -0.8944    0.0000 H   0  0  0  0  0  0  0  0  0  0  0  0
    6.5165   -1.8087    0.0000 H   0  0  0  0  0  0  0  0  0  0  0  0
    5.8979    1.6195    0.0000 H   0  0  0  0  0  0  0  0  0  0  0  0
    6.8235    0.4156    0.0000 H   0  0  0  0  0  0  0  0  0  0  0  0
    8.3425   -2.8817    0.0000 H   0  0  0  0  0  0  0  0  0  0  0  0
    6.5168   -2.9609    0.0000 H   0  0  0  0  0  0  0  0  0  0  0  0
    7.3358   -3.4422    0.0000 H   0  0  0  0  0  0  0  0  0  0  0  0
    4.9990   -1.2881    0.0000 H   0  0  0  0  0  0  0  0  0  0  0  0
    5.7972   -1.2788    0.0000 H   0  0  0  0  0  0  0  0  0  0  0  0
    3.8757   -0.1891    0.0000 H   0  0  0  0  0  0  0  0  0  0  0  0
    4.2775   -0.8789    0.0000 H   0  0  0  0  0  0  0  0  0  0  0  0
    5.7994    2.3355    0.0000 H   0  0  0  0  0  0  0  0  0  0  0  0
    5.1864    2.8942    0.0000 H   0  0  0  0  0  0  0  0  0  0  0  0
    4.2868    2.9949    0.0000 H   0  0  0  0  0  0  0  0  0  0  0  0
    3.5654    2.5858    0.0000 H   0  0  0  0  0  0  0  0  0  0  0  0
    5.9765   -0.7375    0.0000 H   0  0  0  0  0  0  0  0  0  0  0  0
    5.7496   -1.5844    0.0000 H   0  0  0  0  0  0  0  0  0  0  0  0
    6.5965   -1.8113    0.0000 H   0  0  0  0  0  0  0  0  0  0  0  0
    7.1526    1.8456    0.0000 H   0  0  0  0  0  0  0  0  0  0  0  0
    3.3108    0.7924    0.0000 H   0  0  0  0  0  0  0  0  0  0  0  0
    3.0774   -0.0527    0.0000 H   0  0  0  0  0  0  0  0  0  0  0  0
    3.9225   -0.2862    0.0000 H   0  0  0  0  0  0  0  0  0  0  0  0
    9.4619   -0.4651    0.0000 H   0  0  0  0  0  0  0  0  0  0  0  0
    2.4429    0.8450    0.0000 H   0  0  0  0  0  0  0  0  0  0  0  0
    3.3366    2.9170    0.0000 H   0  0  0  0  0  0  0  0  0  0  0  0
    2.6604    3.4752    0.0000 H   0  0  0  0  0  0  0  0  0  0  0  0
    2.1022    2.7990    0.0000 H   0  0  0  0  0  0  0  0  0  0  0  0
  1 23  1  0  0  0  0
  2 15  1  0  0  0  0
  2 50  1  0  0  0  0
  3 22  2  0  0  0  0
  4 25  2  0  0  0  0
  5  6  1  0  0  0  0
  5  7  1  0  0  0  0
  5 17  1  0  0  0  0
  5 19  1  0  0  0  0
  6 10  1  0  0  0  0
  6 13  1  0  0  0  0
  6 27  1  0  0  0  0
  7 11  1  0  0  0  0
  7 12  1  0  0  0  0
  7 28  1  0  0  0  0
  8  9  1  0  0  0  0
  8 14  1  0  0  0  0
  8 15  1  0  0  0  0
  8 21  1  0  0  0  0
  9 10  1  0  0  0  0
  9 16  1  0  0  0  0
  9 29  1  0  0  0  0
 10 20  1  0  0  0  0
 10 30  1  0  0  0  0
 11 12  1  0  0  0  0
 11 22  1  0  0  0  0
 11 31  1  0  0  0  0
 12 32  1  0  0  0  0
 12 33  1  0  0  0  0
 13 14  1  0  0  0  0
 13 34  1  0  0  0  0
 13 35  1  0  0  0  0
 14 36  1  0  0  0  0
 14 37  1  0  0  0  0
 15 18  1  0  0  0  0
 15 25  1  0  0  0  0
 16 18  1  0  0  0  0
 16 38  1  0  0  0  0
 16 39  1  0  0  0  0
 17 23  1  0  0  0  0
 17 24  2  0  0  0  0
 18 40  1  0  0  0  0
 18 41  1  0  0  0  0
 19 42  1  0  0  0  0
 19 43  1  0  0  0  0
 19 44  1  0  0  0  0
 20 23  2  0  0  0  0
 20 45  1  0  0  0  0
 21 46  1  0  0  0  0
 21 47  1  0  0  0  0
 21 48  1  0  0  0  0
 22 24  1  0  0  0  0
 24 49  1  0  0  0  0
 25 26  1  0  0  0  0
 26 51  1  0  0  0  0
 26 52  1  0  0  0  0
 26 53  1  0  0  0  0
M  END
> <PUBCHEM_COMPOUND_CID>
3015

> <PUBCHEM_COMPOUND_CANONICALIZED>
1

> <PUBCHEM_CACTVS_COMPLEXITY>
797

> <PUBCHEM_CACTVS_HBOND_ACCEPTOR>
3

> <PUBCHEM_CACTVS_HBOND_DONOR>
1

> <PUBCHEM_CACTVS_ROTATABLE_BOND>
1

> <PUBCHEM_CACTVS_SUBSKEYS>
AAADceB4MAAEAAAAAAAAAAAAGAAAAYAAAAAwQIAABAAAAGCAAAAAGgIACAAAD0aAgAACAAAAAgCIAqBSAAIAAAAgAAAACAFAAkgIABIBAAAAQAAEgAAIgQOIyPCPgAAAAAAAAACAAAQAACAAAYAADAAAAA==

> <PUBCHEM_IUPAC_INCHI>
InChI=1S/C22H27ClO3/c1-11(24)22(26)7-5-14-12-9-18(23)17-10-19(25)13-8-16(13)21(17,3)15(12)4-6-20(14,22)2/h9-10,12-16,26H,4-8H2,1-3H3

> <PUBCHEM_IUPAC_INCHIKEY>
DUSHUSLJJMDGTE-UHFFFAOYSA-N

> <PUBCHEM_XLOGP3_AA>
3.1

> <PUBCHEM_EXACT_MASS>
374.164872

> <PUBCHEM_MOLECULAR_FORMULA>
C22H27ClO3

> <PUBCHEM_MOLECULAR_WEIGHT>
374.90098

> <PUBCHEM_OPENEYE_CAN_SMILES>
CC(=O)C1(CCC2C1(CCC3C2C=C(C4=CC(=O)C5CC5C34C)Cl)C)O

> <PUBCHEM_OPENEYE_ISO_SMILES>
CC(=O)C1(CCC2C1(CCC3C2C=C(C4=CC(=O)C5CC5C34C)Cl)C)O

> <PUBCHEM_CACTVS_TPSA>
54.4

> <PUBCHEM_MONOISOTOPIC_WEIGHT>
374.164872

> <PUBCHEM_TOTAL_CHARGE>
0

> <PUBCHEM_HEAVY_ATOM_COUNT>
26

> <PUBCHEM_ATOM_DEF_STEREO_COUNT>
0

> <PUBCHEM_ATOM_UDEF_STEREO_COUNT>
8

> <PUBCHEM_BOND_DEF_STEREO_COUNT>
0

> <PUBCHEM_BOND_UDEF_STEREO_COUNT>
0

> <PUBCHEM_ISOTOPIC_ATOM_COUNT>
0

> <PUBCHEM_COMPONENT_COUNT>
1

> <PUBCHEM_CACTVS_TAUTO_COUNT>
10

> <PUBCHEM_COORDINATE_TYPE>
1
5
255

> <PUBCHEM_BONDANNOTATIONS>
10  20  3
11  22  3
15  2  3
5  19  3
6  13  3
7  12  3
8  21  3
9  16  3

$$$$
