3081884
  -OEChem-12171208242D

 88 84  0     1  0  0  0  0  0999 V2000
    4.0747    9.4485    0.0000 O   0  0  0  0  0  0  0  0  0  0  0  0
    3.2087   10.9485    0.0000 O   0  0  0  0  0  0  0  0  0  0  0  0
    9.7466    6.3100    0.0000 O   0  0  0  0  0  0  0  0  0  0  0  0
    8.0146    0.3100    0.0000 O   0  0  0  0  0  0  0  0  0  0  0  0
    8.0146    6.3100    0.0000 O   0  0  0  0  0  0  0  0  0  0  0  0
   15.7477    9.1035    0.0000 O   0  0  0  0  0  0  0  0  0  0  0  0
   12.2836    6.1035    0.0000 O   0  0  0  0  0  0  0  0  0  0  0  0
   14.8816   10.6035    0.0000 O   0  0  0  0  0  0  0  0  0  0  0  0
   14.0156    6.1035    0.0000 O   0  0  0  0  0  0  0  0  0  0  0  0
    9.7466   10.5500    0.0000 O   0  0  0  0  0  0  0  0  0  0  0  0
    8.8806   12.0500    0.0000 O   0  0  0  0  0  0  0  0  0  0  0  0
    9.3136   15.5500    0.0000 O   0  0  0  0  0  0  0  0  0  0  0  0
    8.4476   14.0500    0.0000 O   0  0  0  0  0  0  0  0  0  0  0  0
    1.4766    9.9485    0.0000 N   0  0  0  0  0  0  0  0  0  0  0  0
    0.6106    5.4485    0.0000 N   0  0  0  0  0  0  0  0  0  0  0  0
    9.7466    4.3100    0.0000 N   0  0  0  0  0  0  0  0  0  0  0  0
   13.1496    9.6035    0.0000 N   0  0  0  0  0  0  0  0  0  0  0  0
    7.1486   11.0500    0.0000 N   0  0  0  0  0  0  0  0  0  0  0  0
    1.4766    7.9485    0.0000 C   0  0  0  0  0  0  0  0  0  0  0  0
    2.3426    8.4485    0.0000 C   0  0  0  0  0  0  0  0  0  0  0  0
    1.4766    6.9485    0.0000 C   0  0  0  0  0  0  0  0  0  0  0  0
    2.3426    9.4485    0.0000 C   0  0  1  0  0  0  0  0  0  0  0  0
    0.6106    6.4485    0.0000 C   0  0  0  0  0  0  0  0  0  0  0  0
    3.2087    9.9485    0.0000 C   0  0  0  0  0  0  0  0  0  0  0  0
    8.0146    4.3100    0.0000 C   0  0  0  0  0  0  0  0  0  0  0  0
    8.8806    4.8100    0.0000 C   0  0  1  0  0  0  0  0  0  0  0  0
    8.0146    3.3100    0.0000 C   0  0  0  0  0  0  0  0  0  0  0  0
   14.0156    8.1035    0.0000 C   0  0  0  0  0  0  0  0  0  0  0  0
   14.0156    9.1035    0.0000 C   0  0  1  0  0  0  0  0  0  0  0  0
   13.1496    7.6035    0.0000 C   0  0  0  0  0  0  0  0  0  0  0  0
    7.1486    2.8100    0.0000 C   0  0  0  0  0  0  0  0  0  0  0  0
    8.8806    2.8100    0.0000 C   0  0  0  0  0  0  0  0  0  0  0  0
    8.8806    5.8100    0.0000 C   0  0  0  0  0  0  0  0  0  0  0  0
    7.1486    1.8100    0.0000 C   0  0  0  0  0  0  0  0  0  0  0  0
    8.8806    1.8100    0.0000 C   0  0  0  0  0  0  0  0  0  0  0  0
    8.0146    1.3100    0.0000 C   0  0  0  0  0  0  0  0  0  0  0  0
   14.8816    9.6035    0.0000 C   0  0  0  0  0  0  0  0  0  0  0  0
   13.1496    6.6035    0.0000 C   0  0  0  0  0  0  0  0  0  0  0  0
    8.0146   10.5500    0.0000 C   0  0  1  0  0  0  0  0  0  0  0  0
    8.0146    9.5500    0.0000 C   0  0  0  0  0  0  0  0  0  0  0  0
    8.8806   11.0500    0.0000 C   0  0  0  0  0  0  0  0  0  0  0  0
    7.5816   15.5500    0.0000 C   0  0  0  0  0  0  0  0  0  0  0  0
    8.4476   15.0500    0.0000 C   0  0  0  0  0  0  0  0  0  0  0  0
    1.2646    8.5311    0.0000 H   0  0  0  0  0  0  0  0  0  0  0  0
    0.8660    7.8408    0.0000 H   0  0  0  0  0  0  0  0  0  0  0  0
    2.5547    7.8659    0.0000 H   0  0  0  0  0  0  0  0  0  0  0  0
    2.9532    8.5561    0.0000 H   0  0  0  0  0  0  0  0  0  0  0  0
    1.6887    6.3659    0.0000 H   0  0  0  0  0  0  0  0  0  0  0  0
    2.0872    7.0561    0.0000 H   0  0  0  0  0  0  0  0  0  0  0  0
    2.3426   10.0685    0.0000 H   0  0  0  0  0  0  0  0  0  0  0  0
    0.3985    7.0311    0.0000 H   0  0  0  0  0  0  0  0  0  0  0  0
    0.0000    6.3408    0.0000 H   0  0  0  0  0  0  0  0  0  0  0  0
    0.9397    9.6385    0.0000 H   0  0  0  0  0  0  0  0  0  0  0  0
    1.4766   10.5685    0.0000 H   0  0  0  0  0  0  0  0  0  0  0  0
    0.0736    5.1385    0.0000 H   0  0  0  0  0  0  0  0  0  0  0  0
    1.1475    5.1385    0.0000 H   0  0  0  0  0  0  0  0  0  0  0  0
    7.8025    4.8926    0.0000 H   0  0  0  0  0  0  0  0  0  0  0  0
    7.4040    4.2023    0.0000 H   0  0  0  0  0  0  0  0  0  0  0  0
    9.4175    5.1200    0.0000 H   0  0  0  0  0  0  0  0  0  0  0  0
   14.2277    7.5209    0.0000 H   0  0  0  0  0  0  0  0  0  0  0  0
   14.6262    8.2111    0.0000 H   0  0  0  0  0  0  0  0  0  0  0  0
   14.0156    9.7235    0.0000 H   0  0  0  0  0  0  0  0  0  0  0  0
    4.6116    9.7585    0.0000 H   0  0  0  0  0  0  0  0  0  0  0  0
   12.9375    8.1861    0.0000 H   0  0  0  0  0  0  0  0  0  0  0  0
   12.5390    7.4958    0.0000 H   0  0  0  0  0  0  0  0  0  0  0  0
    6.6116    3.1200    0.0000 H   0  0  0  0  0  0  0  0  0  0  0  0
    9.4175    3.1200    0.0000 H   0  0  0  0  0  0  0  0  0  0  0  0
   10.2836    4.6200    0.0000 H   0  0  0  0  0  0  0  0  0  0  0  0
    9.7466    3.6900    0.0000 H   0  0  0  0  0  0  0  0  0  0  0  0
    6.6116    1.5000    0.0000 H   0  0  0  0  0  0  0  0  0  0  0  0
    9.4175    1.5000    0.0000 H   0  0  0  0  0  0  0  0  0  0  0  0
   12.6127    9.2935    0.0000 H   0  0  0  0  0  0  0  0  0  0  0  0
   13.1496   10.2235    0.0000 H   0  0  0  0  0  0  0  0  0  0  0  0
    9.7466    6.9300    0.0000 H   0  0  0  0  0  0  0  0  0  0  0  0
    7.4776    0.0000    0.0000 H   0  0  0  0  0  0  0  0  0  0  0  0
   16.2846    9.4135    0.0000 H   0  0  0  0  0  0  0  0  0  0  0  0
   12.2836    5.4835    0.0000 H   0  0  0  0  0  0  0  0  0  0  0  0
    7.4776   10.2400    0.0000 H   0  0  0  0  0  0  0  0  0  0  0  0
    7.3946    9.5500    0.0000 H   0  0  0  0  0  0  0  0  0  0  0  0
    8.0146    8.9300    0.0000 H   0  0  0  0  0  0  0  0  0  0  0  0
    8.6346    9.5500    0.0000 H   0  0  0  0  0  0  0  0  0  0  0  0
    6.6116   10.7400    0.0000 H   0  0  0  0  0  0  0  0  0  0  0  0
    7.1486   11.6700    0.0000 H   0  0  0  0  0  0  0  0  0  0  0  0
   10.2836   10.8600    0.0000 H   0  0  0  0  0  0  0  0  0  0  0  0
    7.8916   16.0869    0.0000 H   0  0  0  0  0  0  0  0  0  0  0  0
    7.0446   15.8600    0.0000 H   0  0  0  0  0  0  0  0  0  0  0  0
    7.2716   15.0131    0.0000 H   0  0  0  0  0  0  0  0  0  0  0  0
    9.8506   15.2400    0.0000 H   0  0  0  0  0  0  0  0  0  0  0  0
  1 24  1  0  0  0  0
  1 63  1  0  0  0  0
  2 24  2  0  0  0  0
  3 33  1  0  0  0  0
  3 74  1  0  0  0  0
  4 36  1  0  0  0  0
  4 75  1  0  0  0  0
  5 33  2  0  0  0  0
  6 37  1  0  0  0  0
  6 76  1  0  0  0  0
  7 38  1  0  0  0  0
  7 77  1  0  0  0  0
  8 37  2  0  0  0  0
  9 38  2  0  0  0  0
 10 41  1  0  0  0  0
 10 84  1  0  0  0  0
 11 41  2  0  0  0  0
 12 43  1  0  0  0  0
 12 88  1  0  0  0  0
 13 43  2  0  0  0  0
 22 14  1  6  0  0  0
 14 53  1  0  0  0  0
 14 54  1  0  0  0  0
 15 23  1  0  0  0  0
 15 55  1  0  0  0  0
 15 56  1  0  0  0  0
 26 16  1  1  0  0  0
 16 68  1  0  0  0  0
 16 69  1  0  0  0  0
 29 17  1  6  0  0  0
 17 72  1  0  0  0  0
 17 73  1  0  0  0  0
 39 18  1  6  0  0  0
 18 82  1  0  0  0  0
 18 83  1  0  0  0  0
 19 20  1  0  0  0  0
 19 21  1  0  0  0  0
 19 44  1  0  0  0  0
 19 45  1  0  0  0  0
 20 22  1  0  0  0  0
 20 46  1  0  0  0  0
 20 47  1  0  0  0  0
 21 23  1  0  0  0  0
 21 48  1  0  0  0  0
 21 49  1  0  0  0  0
 22 24  1  0  0  0  0
 22 50  1  0  0  0  0
 23 51  1  0  0  0  0
 23 52  1  0  0  0  0
 25 26  1  0  0  0  0
 25 27  1  0  0  0  0
 25 57  1  0  0  0  0
 25 58  1  0  0  0  0
 26 33  1  0  0  0  0
 26 59  1  0  0  0  0
 27 31  2  0  0  0  0
 27 32  1  0  0  0  0
 28 29  1  0  0  0  0
 28 30  1  0  0  0  0
 28 60  1  0  0  0  0
 28 61  1  0  0  0  0
 29 37  1  0  0  0  0
 29 62  1  0  0  0  0
 30 38  1  0  0  0  0
 30 64  1  0  0  0  0
 30 65  1  0  0  0  0
 31 34  1  0  0  0  0
 31 66  1  0  0  0  0
 32 35  2  0  0  0  0
 32 67  1  0  0  0  0
 34 36  2  0  0  0  0
 34 70  1  0  0  0  0
 35 36  1  0  0  0  0
 35 71  1  0  0  0  0
 39 40  1  0  0  0  0
 39 41  1  0  0  0  0
 39 78  1  0  0  0  0
 40 79  1  0  0  0  0
 40 80  1  0  0  0  0
 40 81  1  0  0  0  0
 42 43  1  0  0  0  0
 42 85  1  0  0  0  0
 42 86  1  0  0  0  0
 42 87  1  0  0  0  0
M  END
> <PUBCHEM_COMPOUND_CID>
3081884

> <PUBCHEM_COMPOUND_CANONICALIZED>
1

> <PUBCHEM_CACTVS_COMPLEXITY>
519

> <PUBCHEM_CACTVS_HBOND_ACCEPTOR>
18

> <PUBCHEM_CACTVS_HBOND_DONOR>
12

> <PUBCHEM_CACTVS_ROTATABLE_BOND>
13

> <PUBCHEM_CACTVS_SUBSKEYS>
AAADcfB7vAAAAAAAAAAAAAAAAAAAAAAAAAAwAAAAAAAAAAABAAAAHgAQCAAADCzBmAQyDoBAAgCIAiDSCAACAAAgIAAIiIGGCIgKJjKCkROAcAAk0BEImAe87qCOIAAAAAAAAABAAAAAAAAAAAAAAAAAAA==

> <PUBCHEM_IUPAC_OPENEYE_NAME>
acetic acid;(2S)-2-amino-3-(4-hydroxyphenyl)propanoic acid;(2S)-2-aminopentanedioic acid;(2S)-2-aminopropanoic acid;(2S)-2,6-diaminohexanoic acid

> <PUBCHEM_IUPAC_CAS_NAME>
acetic acid;(2S)-2-amino-3-(4-hydroxyphenyl)propanoic acid;(2S)-2-aminopentanedioic acid;(2S)-2-aminopropanoic acid;(2S)-2,6-diaminohexanoic acid

> <PUBCHEM_IUPAC_NAME>
acetic acid;(2S)-2-amino-3-(4-hydroxyphenyl)propanoic acid;(2S)-2-aminopentanedioic acid;(2S)-2-aminopropanoic acid;(2S)-2,6-diaminohexanoic acid

> <PUBCHEM_IUPAC_SYSTEMATIC_NAME>
(2S)-2-azanyl-3-(4-hydroxyphenyl)propanoic acid;(2S)-2-azanylpentanedioic acid;(2S)-2-azanylpropanoic acid;(2S)-2,6-bis(azanyl)hexanoic acid;ethanoic acid

> <PUBCHEM_IUPAC_TRADITIONAL_NAME>
acetic acid;(2S)-2-aminoglutaric acid;(2S)-2-amino-3-(4-hydroxyphenyl)propionic acid;(2S)-2-aminopropionic acid;(2S)-2,6-diaminohexanoic acid

> <PUBCHEM_IUPAC_INCHI>
InChI=1S/C9H11NO3.C6H14N2O2.C5H9NO4.C3H7NO2.C2H4O2/c10-8(9(12)13)5-6-1-3-7(11)4-2-6;7-4-2-1-3-5(8)6(9)10;6-3(5(9)10)1-2-4(7)8;1-2(4)3(5)6;1-2(3)4/h1-4,8,11H,5,10H2,(H,12,13);5H,1-4,7-8H2,(H,9,10);3H,1-2,6H2,(H,7,8)(H,9,10);2H,4H2,1H3,(H,5,6);1H3,(H,3,4)/t8-;5-;3-;2-;/m0000./s1

> <PUBCHEM_IUPAC_INCHIKEY>
FHEAIOHRHQGZPC-KIWGSFCNSA-N

> <PUBCHEM_EXACT_MASS>
623.301387

> <PUBCHEM_MOLECULAR_FORMULA>
C25H45N5O13

> <PUBCHEM_MOLECULAR_WEIGHT>
623.6505

> <PUBCHEM_OPENEYE_CAN_SMILES>
CC(C(=O)O)N.CC(=O)O.C1=CC(=CC=C1CC(C(=O)O)N)O.C(CCN)CC(C(=O)O)N.C(CC(=O)O)C(C(=O)O)N

> <PUBCHEM_OPENEYE_ISO_SMILES>
C[C@@H](C(=O)O)N.CC(=O)O.C1=CC(=CC=C1C[C@@H](C(=O)O)N)O.C(CCN)C[C@@H](C(=O)O)N.C(CC(=O)O)[C@@H](C(=O)O)N

> <PUBCHEM_CACTVS_TPSA>
374

> <PUBCHEM_MONOISOTOPIC_WEIGHT>
623.301387

> <PUBCHEM_TOTAL_CHARGE>
0

> <PUBCHEM_HEAVY_ATOM_COUNT>
43

> <PUBCHEM_ATOM_DEF_STEREO_COUNT>
4

> <PUBCHEM_ATOM_UDEF_STEREO_COUNT>
0

> <PUBCHEM_BOND_DEF_STEREO_COUNT>
0

> <PUBCHEM_BOND_UDEF_STEREO_COUNT>
0

> <PUBCHEM_ISOTOPIC_ATOM_COUNT>
0

> <PUBCHEM_COMPONENT_COUNT>
5

> <PUBCHEM_CACTVS_TAUTO_COUNT>
2

> <PUBCHEM_COORDINATE_TYPE>
1
5
255

> <PUBCHEM_BONDANNOTATIONS>
22  14  6
26  16  5
29  17  6
39  18  6
27  31  8
27  32  8
31  34  8
32  35  8
34  36  8
35  36  8

$$$$
