3086258
  -OEChem-12171208242D

 81 85  0     1  0  0  0  0  0999 V2000
    7.3791    5.5351    0.0000 O   0  0  0  0  0  0  0  0  0  0  0  0
   13.2337   -0.0518    0.0000 O   0  0  0  0  0  0  0  0  0  0  0  0
    7.6407   -5.5428    0.0000 O   0  0  0  0  0  0  0  0  0  0  0  0
   12.1910   -1.4348    0.0000 O   0  0  0  0  0  0  0  0  0  0  0  0
    9.0357   -4.5161    0.0000 O   0  0  0  0  0  0  0  0  0  0  0  0
    6.7233    2.2078    0.0000 N   0  0  0  0  0  0  0  0  0  0  0  0
    5.2534    0.8383    0.0000 N   0  0  0  0  0  0  0  0  0  0  0  0
    8.2586    0.8383    0.0000 N   0  0  0  0  0  0  0  0  0  0  0  0
    6.7568   -0.5312    0.0000 N   0  0  0  0  0  0  0  0  0  0  0  0
    7.2239    3.8100    0.0000 C   0  0  0  0  0  0  0  0  0  0  0  0
    5.9214    2.8423    0.0000 C   0  0  0  0  0  0  0  0  0  0  0  0
    6.2228    3.8100    0.0000 C   0  0  0  0  0  0  0  0  0  0  0  0
    7.5588    2.8758    0.0000 C   0  0  0  0  0  0  0  0  0  0  0  0
    4.6858    1.6068    0.0000 C   0  0  0  0  0  0  0  0  0  0  0  0
    3.7182    1.3389    0.0000 C   0  0  0  0  0  0  0  0  0  0  0  0
    3.7182    0.3377    0.0000 C   0  0  0  0  0  0  0  0  0  0  0  0
    4.6858    0.0698    0.0000 C   0  0  0  0  0  0  0  0  0  0  0  0
    4.9537    2.5744    0.0000 C   0  0  0  0  0  0  0  0  0  0  0  0
    7.7995    4.6278    0.0000 C   0  0  3  0  0  0  0  0  0  0  0  0
    9.7955    0.3712    0.0000 C   0  0  0  0  0  0  0  0  0  0  0  0
    7.2574   -2.0999    0.0000 C   0  0  0  0  0  0  0  0  0  0  0  0
    8.8261    1.6402    0.0000 C   0  0  0  0  0  0  0  0  0  0  0  0
    9.7955    1.3724    0.0000 C   0  0  0  0  0  0  0  0  0  0  0  0
    8.5265    2.5744    0.0000 C   0  0  0  0  0  0  0  0  0  0  0  0
    8.8596    0.1033    0.0000 C   0  0  0  0  0  0  0  0  0  0  0  0
    6.2562   -2.0999    0.0000 C   0  0  0  0  0  0  0  0  0  0  0  0
    5.9549   -1.1657    0.0000 C   0  0  0  0  0  0  0  0  0  0  0  0
    7.5588   -1.1322    0.0000 C   0  0  0  0  0  0  0  0  0  0  0  0
    2.9223    1.9444    0.0000 C   0  0  0  0  0  0  0  0  0  0  0  0
    4.9872   -0.8644    0.0000 C   0  0  0  0  0  0  0  0  0  0  0  0
   10.5940   -0.2308    0.0000 C   0  0  0  0  0  0  0  0  0  0  0  0
    8.5599   -0.8644    0.0000 C   0  0  0  0  0  0  0  0  0  0  0  0
    7.8502   -2.9053    0.0000 C   0  0  0  0  0  0  0  0  0  0  0  0
    5.6300    4.6154    0.0000 C   0  0  0  0  0  0  0  0  0  0  0  0
    2.8521   -0.1623    0.0000 C   0  0  0  0  0  0  0  0  0  0  0  0
    8.7955    4.5382    0.0000 C   0  0  0  0  0  0  0  0  0  0  0  0
   10.5912    1.9780    0.0000 C   0  0  0  0  0  0  0  0  0  0  0  0
    5.5855   -2.8416    0.0000 C   0  0  0  0  0  0  0  0  0  0  0  0
    2.0000    1.5579    0.0000 C   0  0  0  0  0  0  0  0  0  0  0  0
   11.5146    0.1597    0.0000 C   0  0  0  0  0  0  0  0  0  0  0  0
    7.4491   -3.8213    0.0000 C   0  0  0  0  0  0  0  0  0  0  0  0
   12.3131   -0.4423    0.0000 C   0  0  0  0  0  0  0  0  0  0  0  0
    8.0418   -4.6267    0.0000 C   0  0  0  0  0  0  0  0  0  0  0  0
    6.7249    1.5878    0.0000 H   0  0  0  0  0  0  0  0  0  0  0  0
    4.5153    3.0128    0.0000 H   0  0  0  0  0  0  0  0  0  0  0  0
    6.9529    4.7039    0.0000 H   0  0  0  0  0  0  0  0  0  0  0  0
    5.8734    0.8383    0.0000 H   0  0  0  0  0  0  0  0  0  0  0  0
    8.9630    3.0147    0.0000 H   0  0  0  0  0  0  0  0  0  0  0  0
    3.3777    2.3651    0.0000 H   0  0  0  0  0  0  0  0  0  0  0  0
    2.5870    2.4659    0.0000 H   0  0  0  0  0  0  0  0  0  0  0  0
    4.5510   -1.3050    0.0000 H   0  0  0  0  0  0  0  0  0  0  0  0
   10.1405   -0.6535    0.0000 H   0  0  0  0  0  0  0  0  0  0  0  0
   10.9316   -0.7509    0.0000 H   0  0  0  0  0  0  0  0  0  0  0  0
    8.9897   -1.3112    0.0000 H   0  0  0  0  0  0  0  0  0  0  0  0
    8.3663   -3.2488    0.0000 H   0  0  0  0  0  0  0  0  0  0  0  0
    8.2781   -2.4567    0.0000 H   0  0  0  0  0  0  0  0  0  0  0  0
    6.1293    4.9829    0.0000 H   0  0  0  0  0  0  0  0  0  0  0  0
    5.2625    5.1147    0.0000 H   0  0  0  0  0  0  0  0  0  0  0  0
    5.1307    4.2479    0.0000 H   0  0  0  0  0  0  0  0  0  0  0  0
    2.5421    0.3746    0.0000 H   0  0  0  0  0  0  0  0  0  0  0  0
    2.3152   -0.4723    0.0000 H   0  0  0  0  0  0  0  0  0  0  0  0
    3.1622   -0.6992    0.0000 H   0  0  0  0  0  0  0  0  0  0  0  0
    8.7399    3.9206    0.0000 H   0  0  0  0  0  0  0  0  0  0  0  0
    9.4130    4.4826    0.0000 H   0  0  0  0  0  0  0  0  0  0  0  0
    8.8510    5.1557    0.0000 H   0  0  0  0  0  0  0  0  0  0  0  0
   10.9667    1.4847    0.0000 H   0  0  0  0  0  0  0  0  0  0  0  0
   11.0846    2.3535    0.0000 H   0  0  0  0  0  0  0  0  0  0  0  0
   10.2157    2.4714    0.0000 H   0  0  0  0  0  0  0  0  0  0  0  0
    5.1257   -2.4258    0.0000 H   0  0  0  0  0  0  0  0  0  0  0  0
    5.1697   -3.3015    0.0000 H   0  0  0  0  0  0  0  0  0  0  0  0
    6.0454   -3.2575    0.0000 H   0  0  0  0  0  0  0  0  0  0  0  0
   11.9681    0.5824    0.0000 H   0  0  0  0  0  0  0  0  0  0  0  0
   11.1770    0.6798    0.0000 H   0  0  0  0  0  0  0  0  0  0  0  0
    1.7604    2.1297    0.0000 H   0  0  0  0  0  0  0  0  0  0  0  0
    1.4282    1.3182    0.0000 H   0  0  0  0  0  0  0  0  0  0  0  0
    2.2396    0.9860    0.0000 H   0  0  0  0  0  0  0  0  0  0  0  0
    6.9329   -3.4778    0.0000 H   0  0  0  0  0  0  0  0  0  0  0  0
    7.0211   -4.2700    0.0000 H   0  0  0  0  0  0  0  0  0  0  0  0
    7.7360    6.0421    0.0000 H   0  0  0  0  0  0  0  0  0  0  0  0
   13.7288   -0.4250    0.0000 H   0  0  0  0  0  0  0  0  0  0  0  0
    8.0082   -6.0421    0.0000 H   0  0  0  0  0  0  0  0  0  0  0  0
  1 19  1  0  0  0  0
  1 79  1  0  0  0  0
  2 42  1  0  0  0  0
  2 80  1  0  0  0  0
  3 43  1  0  0  0  0
  3 81  1  0  0  0  0
  4 42  2  0  0  0  0
  5 43  2  0  0  0  0
  6 11  1  0  0  0  0
  6 13  1  0  0  0  0
  6 44  1  0  0  0  0
  7 14  1  0  0  0  0
  7 17  1  0  0  0  0
  7 47  1  0  0  0  0
  8 22  2  0  0  0  0
  8 25  1  0  0  0  0
  9 27  1  0  0  0  0
  9 28  2  0  0  0  0
 10 12  2  0  0  0  0
 10 13  1  0  0  0  0
 10 19  1  0  0  0  0
 11 12  1  0  0  0  0
 11 18  2  0  0  0  0
 12 34  1  0  0  0  0
 13 24  2  0  0  0  0
 14 15  2  0  0  0  0
 14 18  1  0  0  0  0
 15 16  1  0  0  0  0
 15 29  1  0  0  0  0
 16 17  2  0  0  0  0
 16 35  1  0  0  0  0
 17 30  1  0  0  0  0
 18 45  1  0  0  0  0
 19 36  1  0  0  0  0
 19 46  1  0  0  0  0
 20 23  2  0  0  0  0
 20 25  1  0  0  0  0
 20 31  1  0  0  0  0
 21 26  2  0  0  0  0
 21 28  1  0  0  0  0
 21 33  1  0  0  0  0
 22 23  1  0  0  0  0
 22 24  1  0  0  0  0
 23 37  1  0  0  0  0
 24 48  1  0  0  0  0
 25 32  2  0  0  0  0
 26 27  1  0  0  0  0
 26 38  1  0  0  0  0
 27 30  2  0  0  0  0
 28 32  1  0  0  0  0
 29 39  1  0  0  0  0
 29 49  1  0  0  0  0
 29 50  1  0  0  0  0
 30 51  1  0  0  0  0
 31 40  1  0  0  0  0
 31 52  1  0  0  0  0
 31 53  1  0  0  0  0
 32 54  1  0  0  0  0
 33 41  1  0  0  0  0
 33 55  1  0  0  0  0
 33 56  1  0  0  0  0
 34 57  1  0  0  0  0
 34 58  1  0  0  0  0
 34 59  1  0  0  0  0
 35 60  1  0  0  0  0
 35 61  1  0  0  0  0
 35 62  1  0  0  0  0
 36 63  1  0  0  0  0
 36 64  1  0  0  0  0
 36 65  1  0  0  0  0
 37 66  1  0  0  0  0
 37 67  1  0  0  0  0
 37 68  1  0  0  0  0
 38 69  1  0  0  0  0
 38 70  1  0  0  0  0
 38 71  1  0  0  0  0
 39 74  1  0  0  0  0
 39 75  1  0  0  0  0
 39 76  1  0  0  0  0
 40 42  1  0  0  0  0
 40 72  1  0  0  0  0
 40 73  1  0  0  0  0
 41 43  1  0  0  0  0
 41 77  1  0  0  0  0
 41 78  1  0  0  0  0
M  END
> <PUBCHEM_COMPOUND_CID>
3086258

> <PUBCHEM_COMPOUND_CANONICALIZED>
1

> <PUBCHEM_CACTVS_COMPLEXITY>
982

> <PUBCHEM_CACTVS_HBOND_ACCEPTOR>
7

> <PUBCHEM_CACTVS_HBOND_DONOR>
5

> <PUBCHEM_CACTVS_ROTATABLE_BOND>
8

> <PUBCHEM_CACTVS_SUBSKEYS>
AAADcfB/uAAAAAAAAAAAAAAAAAAAAWLFiwAAAAAAAAAAAAAB/gAAHgAQCAAADByhngIyyLLJkgCoAyTyTACCgCAhAiAAmSEwbJgINnLA0NGEdAhm0AHI2Ae42fOegAAAAAAAAAAAAAAAAAAAAAAAAAAAAA==

> <PUBCHEM_IUPAC_OPENEYE_NAME>
3-[18-(2-carboxyethyl)-8-ethyl-13-(1-hydroxyethyl)-3,7,12,17-tetramethyl-22,23-dihydroporphyrin-2-yl]propanoic acid

> <PUBCHEM_IUPAC_CAS_NAME>
3-[18-(2-carboxyethyl)-8-ethyl-13-(1-hydroxyethyl)-3,7,12,17-tetramethyl-22,23-dihydroporphyrin-2-yl]propanoic acid

> <PUBCHEM_IUPAC_NAME>
3-[18-(2-carboxyethyl)-8-ethyl-13-(1-hydroxyethyl)-3,7,12,17-tetramethyl-22,23-dihydroporphyrin-2-yl]propanoic acid

> <PUBCHEM_IUPAC_SYSTEMATIC_NAME>
3-[8-ethyl-13-(1-hydroxyethyl)-18-(3-hydroxy-3-oxopropyl)-3,7,12,17-tetramethyl-22,23-dihydroporphyrin-2-yl]propanoic acid

> <PUBCHEM_IUPAC_TRADITIONAL_NAME>
3-[18-(2-carboxyethyl)-8-ethyl-13-(1-hydroxyethyl)-3,7,12,17-tetramethyl-22,23-dihydroporphin-2-yl]propionic acid

> <PUBCHEM_IUPAC_INCHI>
InChI=1S/C34H38N4O5/c1-7-21-16(2)24-12-25-17(3)22(8-10-32(40)41)29(36-25)15-30-23(9-11-33(42)43)18(4)26(37-30)14-31-34(20(6)39)19(5)27(38-31)13-28(21)35-24/h12-15,20,35,38-39H,7-11H2,1-6H3,(H,40,41)(H,42,43)

> <PUBCHEM_IUPAC_INCHIKEY>
JYLAITRQWJPNBC-UHFFFAOYSA-N

> <PUBCHEM_XLOGP3_AA>
3.4

> <PUBCHEM_EXACT_MASS>
582.28422

> <PUBCHEM_MOLECULAR_FORMULA>
C34H38N4O5

> <PUBCHEM_MOLECULAR_WEIGHT>
582.68932

> <PUBCHEM_OPENEYE_CAN_SMILES>
CCC1=C2C=C3C(=C(C(=CC4=NC(=CC5=NC(=CC(=C1C)N2)C(=C5CCC(=O)O)C)C(=C4C)CCC(=O)O)N3)C(C)O)C

> <PUBCHEM_OPENEYE_ISO_SMILES>
CCC1=C2C=C3C(=C(C(=CC4=NC(=CC5=NC(=CC(=C1C)N2)C(=C5CCC(=O)O)C)C(=C4C)CCC(=O)O)N3)C(C)O)C

> <PUBCHEM_CACTVS_TPSA>
152

> <PUBCHEM_MONOISOTOPIC_WEIGHT>
582.28422

> <PUBCHEM_TOTAL_CHARGE>
0

> <PUBCHEM_HEAVY_ATOM_COUNT>
43

> <PUBCHEM_ATOM_DEF_STEREO_COUNT>
0

> <PUBCHEM_ATOM_UDEF_STEREO_COUNT>
1

> <PUBCHEM_BOND_DEF_STEREO_COUNT>
0

> <PUBCHEM_BOND_UDEF_STEREO_COUNT>
0

> <PUBCHEM_ISOTOPIC_ATOM_COUNT>
0

> <PUBCHEM_COMPONENT_COUNT>
1

> <PUBCHEM_CACTVS_TAUTO_COUNT>
6

> <PUBCHEM_COORDINATE_TYPE>
1
5
255

> <PUBCHEM_BONDANNOTATIONS>
10  12  8
10  13  8
11  12  8
11  18  8
13  24  8
14  15  8
14  18  8
15  16  8
16  17  8
17  30  8
19  46  3
22  24  8
25  32  8
27  30  8
28  32  8
6  11  8
6  13  8
7  14  8
7  17  8
8  22  8
8  25  8
9  27  8
9  28  8

$$$$
