3086672
  -OEChem-12171208242D

 75 75  0     1  0  0  0  0  0999 V2000
   11.1972    5.0369    0.0000 Mn  0  2  0  0  0  0  0  0  0  0  0  0
    6.9282    2.5369    0.0000 P   0  0  0  0  0  0  0  0  0  0  0  0
    7.7942    8.0369    0.0000 P   0  0  0  0  0  0  0  0  0  0  0  0
    1.7320    2.5369    0.0000 O   0  0  0  0  0  0  0  0  0  0  0  0
    2.5981    8.0369    0.0000 O   0  0  0  0  0  0  0  0  0  0  0  0
    6.0622    2.0369    0.0000 O   0  0  0  0  0  0  0  0  0  0  0  0
    6.9282    8.5369    0.0000 O   0  0  0  0  0  0  0  0  0  0  0  0
    0.8660    7.0369    0.0000 O   0  0  0  0  0  0  0  0  0  0  0  0
    0.8660    5.0369    0.0000 O   0  0  0  0  0  0  0  0  0  0  0  0
    0.0000    3.5369    0.0000 O   0  0  0  0  0  0  0  0  0  0  0  0
    1.7320    5.5369    0.0000 O   0  0  0  0  0  0  0  0  0  0  0  0
    8.6602    7.5369    0.0000 O   0  0  0  0  0  0  0  0  0  0  0  0
    8.2942    8.9030    0.0000 O   0  0  0  0  0  0  0  0  0  0  0  0
    7.7942    3.0369    0.0000 O   0  0  0  0  0  0  0  0  0  0  0  0
    7.4282    1.6709    0.0000 O   0  0  0  0  0  0  0  0  0  0  0  0
    6.4282    3.4030    0.0000 O   0  0  0  0  0  0  0  0  0  0  0  0
    7.2942    7.1709    0.0000 O   0  0  0  0  0  0  0  0  0  0  0  0
    2.5981    4.0369    0.0000 N   0  0  3  0  0  0  0  0  0  0  0  0
    3.4641    6.5369    0.0000 N   0  0  3  0  0  0  0  0  0  0  0  0
    3.4641    0.5369    0.0000 N   0  0  0  0  0  0  0  0  0  0  0  0
    4.3301   10.0369    0.0000 N   0  0  0  0  0  0  0  0  0  0  0  0
    3.4641    5.5369    0.0000 C   0  0  0  0  0  0  0  0  0  0  0  0
    2.5981    5.0369    0.0000 C   0  0  0  0  0  0  0  0  0  0  0  0
    4.3301    7.0369    0.0000 C   0  0  0  0  0  0  0  0  0  0  0  0
    3.4641    3.5369    0.0000 C   0  0  0  0  0  0  0  0  0  0  0  0
    4.3301    8.0369    0.0000 C   0  0  0  0  0  0  0  0  0  0  0  0
    3.4641    2.5369    0.0000 C   0  0  0  0  0  0  0  0  0  0  0  0
    2.5981    7.0369    0.0000 C   0  0  0  0  0  0  0  0  0  0  0  0
    1.7320    3.5369    0.0000 C   0  0  0  0  0  0  0  0  0  0  0  0
    4.3301    2.0369    0.0000 C   0  0  0  0  0  0  0  0  0  0  0  0
    5.1962    8.5369    0.0000 C   0  0  0  0  0  0  0  0  0  0  0  0
    3.4641    8.5369    0.0000 C   0  0  0  0  0  0  0  0  0  0  0  0
    2.5981    2.0369    0.0000 C   0  0  0  0  0  0  0  0  0  0  0  0
    6.0622    8.0369    0.0000 C   0  0  0  0  0  0  0  0  0  0  0  0
    5.1962    2.5369    0.0000 C   0  0  0  0  0  0  0  0  0  0  0  0
    0.8660    4.0369    0.0000 C   0  0  0  0  0  0  0  0  0  0  0  0
    1.7320    6.5369    0.0000 C   0  0  0  0  0  0  0  0  0  0  0  0
    3.4641    9.5369    0.0000 C   0  0  0  0  0  0  0  0  0  0  0  0
    2.5981    1.0369    0.0000 C   0  0  0  0  0  0  0  0  0  0  0  0
    4.3301    1.0369    0.0000 C   0  0  0  0  0  0  0  0  0  0  0  0
    5.1962    9.5369    0.0000 C   0  0  0  0  0  0  0  0  0  0  0  0
    2.5981   10.0369    0.0000 C   0  0  0  0  0  0  0  0  0  0  0  0
    1.7320    0.5369    0.0000 C   0  0  0  0  0  0  0  0  0  0  0  0
    3.6762    4.9543    0.0000 H   0  0  0  0  0  0  0  0  0  0  0  0
    4.0747    5.6446    0.0000 H   0  0  0  0  0  0  0  0  0  0  0  0
    2.3860    5.6195    0.0000 H   0  0  0  0  0  0  0  0  0  0  0  0
    1.9875    4.9293    0.0000 H   0  0  0  0  0  0  0  0  0  0  0  0
    4.0747    3.4293    0.0000 H   0  0  0  0  0  0  0  0  0  0  0  0
    3.6762    4.1195    0.0000 H   0  0  0  0  0  0  0  0  0  0  0  0
    4.5422    6.4543    0.0000 H   0  0  0  0  0  0  0  0  0  0  0  0
    4.9407    7.1446    0.0000 H   0  0  0  0  0  0  0  0  0  0  0  0
    1.3335    3.0620    0.0000 H   0  0  0  0  0  0  0  0  0  0  0  0
    2.1306    3.0620    0.0000 H   0  0  0  0  0  0  0  0  0  0  0  0
    2.9966    7.5119    0.0000 H   0  0  0  0  0  0  0  0  0  0  0  0
    2.1996    7.5119    0.0000 H   0  0  0  0  0  0  0  0  0  0  0  0
    5.5947    3.0119    0.0000 H   0  0  0  0  0  0  0  0  0  0  0  0
    4.7976    3.0119    0.0000 H   0  0  0  0  0  0  0  0  0  0  0  0
    5.6636    7.5620    0.0000 H   0  0  0  0  0  0  0  0  0  0  0  0
    6.4607    7.5620    0.0000 H   0  0  0  0  0  0  0  0  0  0  0  0
    4.8671    0.7269    0.0000 H   0  0  0  0  0  0  0  0  0  0  0  0
    5.7331    9.8469    0.0000 H   0  0  0  0  0  0  0  0  0  0  0  0
    1.4220    1.0739    0.0000 H   0  0  0  0  0  0  0  0  0  0  0  0
    2.9081   10.5739    0.0000 H   0  0  0  0  0  0  0  0  0  0  0  0
    2.0611   10.3469    0.0000 H   0  0  0  0  0  0  0  0  0  0  0  0
    2.2881    9.5000    0.0000 H   0  0  0  0  0  0  0  0  0  0  0  0
    1.1951    0.2269    0.0000 H   0  0  0  0  0  0  0  0  0  0  0  0
    2.0420    0.0000    0.0000 H   0  0  0  0  0  0  0  0  0  0  0  0
    1.1951    2.2269    0.0000 H   0  0  0  0  0  0  0  0  0  0  0  0
    2.0611    8.3469    0.0000 H   0  0  0  0  0  0  0  0  0  0  0  0
    0.3291    5.3469    0.0000 H   0  0  0  0  0  0  0  0  0  0  0  0
    0.8660    7.6569    0.0000 H   0  0  0  0  0  0  0  0  0  0  0  0
    7.1182    1.1340    0.0000 H   0  0  0  0  0  0  0  0  0  0  0  0
    8.3312    2.7269    0.0000 H   0  0  0  0  0  0  0  0  0  0  0  0
    7.9842    9.4399    0.0000 H   0  0  0  0  0  0  0  0  0  0  0  0
    9.1972    7.8469    0.0000 H   0  0  0  0  0  0  0  0  0  0  0  0
  2  6  1  0  0  0  0
  2 14  1  0  0  0  0
  2 15  1  0  0  0  0
  2 16  2  0  0  0  0
  3  7  1  0  0  0  0
  3 12  1  0  0  0  0
  3 13  1  0  0  0  0
  3 17  2  0  0  0  0
  4 33  1  0  0  0  0
  4 68  1  0  0  0  0
  5 32  1  0  0  0  0
  5 69  1  0  0  0  0
  6 35  1  0  0  0  0
  7 34  1  0  0  0  0
  8 37  1  0  0  0  0
  8 71  1  0  0  0  0
  9 36  1  0  0  0  0
  9 70  1  0  0  0  0
 10 36  2  0  0  0  0
 11 37  2  0  0  0  0
 12 75  1  0  0  0  0
 13 74  1  0  0  0  0
 14 73  1  0  0  0  0
 15 72  1  0  0  0  0
 18 23  1  0  0  0  0
 18 25  1  0  0  0  0
 18 29  1  0  0  0  0
 19 22  1  0  0  0  0
 19 24  1  0  0  0  0
 19 28  1  0  0  0  0
 20 39  2  0  0  0  0
 20 40  1  0  0  0  0
 21 38  2  0  0  0  0
 21 41  1  0  0  0  0
 22 23  1  0  0  0  0
 22 44  1  0  0  0  0
 22 45  1  0  0  0  0
 23 46  1  0  0  0  0
 23 47  1  0  0  0  0
 24 26  1  0  0  0  0
 24 50  1  0  0  0  0
 24 51  1  0  0  0  0
 25 27  1  0  0  0  0
 25 48  1  0  0  0  0
 25 49  1  0  0  0  0
 26 31  1  0  0  0  0
 26 32  2  0  0  0  0
 27 30  1  0  0  0  0
 27 33  2  0  0  0  0
 28 37  1  0  0  0  0
 28 54  1  0  0  0  0
 28 55  1  0  0  0  0
 29 36  1  0  0  0  0
 29 52  1  0  0  0  0
 29 53  1  0  0  0  0
 30 35  1  0  0  0  0
 30 40  2  0  0  0  0
 31 34  1  0  0  0  0
 31 41  2  0  0  0  0
 32 38  1  0  0  0  0
 33 39  1  0  0  0  0
 34 58  1  0  0  0  0
 34 59  1  0  0  0  0
 35 56  1  0  0  0  0
 35 57  1  0  0  0  0
 38 42  1  0  0  0  0
 39 43  1  0  0  0  0
 40 60  1  0  0  0  0
 41 61  1  0  0  0  0
 42 63  1  0  0  0  0
 42 64  1  0  0  0  0
 42 65  1  0  0  0  0
 43 62  1  0  0  0  0
 43 66  1  0  0  0  0
 43 67  1  0  0  0  0
M  CHG  1   1   2
M  END
> <PUBCHEM_COMPOUND_CID>
3086672

> <PUBCHEM_COMPOUND_CANONICALIZED>
1

> <PUBCHEM_CACTVS_COMPLEXITY>
907

> <PUBCHEM_CACTVS_HBOND_ACCEPTOR>
18

> <PUBCHEM_CACTVS_HBOND_DONOR>
8

> <PUBCHEM_CACTVS_ROTATABLE_BOND>
17

> <PUBCHEM_CACTVS_SUBSKEYS>
AAADcfB7vAMAAABAAAAAAAAAAAAAAAAAAAAsWAAAAAAAAAAB4AAAHgAACCAADAzhngYujpMIExCoQxT3TISCgCAxYCAA2CC9TJgKZmLSkbOUcAhmwBHY2AfwUAMOgAAAAAAAAAAAAAAAAAAAAAAAAAAAAA==

> <PUBCHEM_IUPAC_OPENEYE_NAME>
manganous;2-[2-[carboxymethyl-[[3-hydroxy-2-methyl-5-(phosphonooxymethyl)-4-pyridyl]methyl]amino]ethyl-[[3-hydroxy-2-methyl-5-(phosphonooxymethyl)-4-pyridyl]methyl]amino]acetic acid

> <PUBCHEM_IUPAC_CAS_NAME>
2-[2-[carboxymethyl-[[3-hydroxy-2-methyl-5-(phosphonooxymethyl)-4-pyridinyl]methyl]amino]ethyl-[[3-hydroxy-2-methyl-5-(phosphonooxymethyl)-4-pyridinyl]methyl]amino]acetic acid;manganese(2+)

> <PUBCHEM_IUPAC_NAME>
2-[2-[carboxymethyl-[[3-hydroxy-2-methyl-5-(phosphonooxymethyl)pyridin-4-yl]methyl]amino]ethyl-[[3-hydroxy-2-methyl-5-(phosphonooxymethyl)pyridin-4-yl]methyl]amino]acetic acid;manganese(2+)

> <PUBCHEM_IUPAC_SYSTEMATIC_NAME>
2-[2-[2-hydroxy-2-oxoethyl-[[2-methyl-3-oxidanyl-5-(phosphonooxymethyl)pyridin-4-yl]methyl]amino]ethyl-[[2-methyl-3-oxidanyl-5-(phosphonooxymethyl)pyridin-4-yl]methyl]amino]ethanoic acid;manganese(2+)

> <PUBCHEM_IUPAC_TRADITIONAL_NAME>
manganous;2-[2-[carboxymethyl-[[3-hydroxy-2-methyl-5-(phosphonooxymethyl)-4-pyridyl]methyl]amino]ethyl-[[3-hydroxy-2-methyl-5-(phosphonooxymethyl)-4-pyridyl]methyl]amino]acetic acid

> <PUBCHEM_IUPAC_INCHI>
InChI=1S/C22H32N4O14P2.Mn/c1-13-21(31)17(15(5-23-13)11-39-41(33,34)35)7-25(9-19(27)28)3-4-26(10-20(29)30)8-18-16(12-40-42(36,37)38)6-24-14(2)22(18)32;/h5-6,31-32H,3-4,7-12H2,1-2H3,(H,27,28)(H,29,30)(H2,33,34,35)(H2,36,37,38);/q;+2

> <PUBCHEM_IUPAC_INCHIKEY>
QDQFSBKXQQZVTB-UHFFFAOYSA-N

> <PUBCHEM_EXACT_MASS>
693.07707

> <PUBCHEM_MOLECULAR_FORMULA>
C22H32MnN4O14P2+2

> <PUBCHEM_MOLECULAR_WEIGHT>
693.393449

> <PUBCHEM_OPENEYE_CAN_SMILES>
CC1=NC=C(C(=C1O)CN(CCN(CC2=C(C(=NC=C2COP(=O)(O)O)C)O)CC(=O)O)CC(=O)O)COP(=O)(O)O.[Mn+2]

> <PUBCHEM_OPENEYE_ISO_SMILES>
CC1=NC=C(C(=C1O)CN(CCN(CC2=C(C(=NC=C2COP(=O)(O)O)C)O)CC(=O)O)CC(=O)O)COP(=O)(O)O.[Mn+2]

> <PUBCHEM_CACTVS_TPSA>
281

> <PUBCHEM_MONOISOTOPIC_WEIGHT>
693.07707

> <PUBCHEM_TOTAL_CHARGE>
2

> <PUBCHEM_HEAVY_ATOM_COUNT>
43

> <PUBCHEM_ATOM_DEF_STEREO_COUNT>
0

> <PUBCHEM_ATOM_UDEF_STEREO_COUNT>
0

> <PUBCHEM_BOND_DEF_STEREO_COUNT>
0

> <PUBCHEM_BOND_UDEF_STEREO_COUNT>
0

> <PUBCHEM_ISOTOPIC_ATOM_COUNT>
0

> <PUBCHEM_COMPONENT_COUNT>
2

> <PUBCHEM_CACTVS_TAUTO_COUNT>
5

> <PUBCHEM_COORDINATE_TYPE>
1
5
255

> <PUBCHEM_BONDANNOTATIONS>
20  39  8
20  40  8
21  38  8
21  41  8
26  31  8
26  32  8
27  30  8
27  33  8
30  40  8
31  41  8
32  38  8
33  39  8

$$$$
