3143
  -OEChem-12171207592D

111116  0     1  0  0  0  0  0999 V2000
    5.1483   -5.9217    0.0000 O   0  0  0  0  0  0  0  0  0  0  0  0
    6.3053   -4.6592    0.0000 O   0  0  0  0  0  0  0  0  0  0  0  0
    7.0654   -3.2960    0.0000 O   0  0  0  0  0  0  0  0  0  0  0  0
    7.4821   -2.1133    0.0000 O   0  0  0  0  0  0  0  0  0  0  0  0
    2.4962   -3.2651    0.0000 O   0  0  0  0  0  0  0  0  0  0  0  0
    2.8690   -2.1133    0.0000 O   0  0  0  0  0  0  0  0  0  0  0  0
    3.5446   -0.4823    0.0000 O   0  0  0  0  0  0  0  0  0  0  0  0
    7.5875    0.2987    0.0000 O   0  0  0  0  0  0  0  0  0  0  0  0
    7.5913   -5.8195    0.0000 O   0  0  0  0  0  0  0  0  0  0  0  0
    7.5138   -4.9689    0.0000 O   0  0  0  0  0  0  0  0  0  0  0  0
    6.3628    1.5234    0.0000 O   0  0  0  0  0  0  0  0  0  0  0  0
    9.0017    1.7129    0.0000 O   0  0  0  0  0  0  0  0  0  0  0  0
    5.5863    4.4212    0.0000 O   0  0  0  0  0  0  0  0  0  0  0  0
    7.2593    4.8695    0.0000 O   0  0  0  0  0  0  0  0  0  0  0  0
    6.8110    3.1965    0.0000 N   0  0  0  0  0  0  0  0  0  0  0  0
    5.1755   -3.4198    0.0000 C   0  0  3  0  0  0  0  0  0  0  0  0
    5.3274   -4.4503    0.0000 C   0  0  3  0  0  0  0  0  0  0  0  0
    4.2517   -3.0372    0.0000 C   0  0  3  0  0  0  0  0  0  0  0  0
    4.5059   -5.0908    0.0000 C   0  0  3  0  0  0  0  0  0  0  0  0
    6.0994   -3.0372    0.0000 C   0  0  3  0  0  0  0  0  0  0  0  0
    6.4821   -2.1133    0.0000 C   0  0  3  0  0  0  0  0  0  0  0  0
    3.4156   -3.6584    0.0000 C   0  0  3  0  0  0  0  0  0  0  0  0
    3.5436   -4.6922    0.0000 C   0  0  0  0  0  0  0  0  0  0  0  0
    6.0994   -1.1894    0.0000 C   0  0  0  0  0  0  0  0  0  0  0  0
    5.9766   -5.2760    0.0000 C   0  0  0  0  0  0  0  0  0  0  0  0
    3.8690   -2.1133    0.0000 C   0  0  0  0  0  0  0  0  0  0  0  0
    7.1552   -1.3716    0.0000 C   0  0  0  0  0  0  0  0  0  0  0  0
    5.1755   -0.8067    0.0000 C   0  0  0  0  0  0  0  0  0  0  0  0
    3.3278   -2.6545    0.0000 C   0  0  0  0  0  0  0  0  0  0  0  0
    4.2517   -1.1894    0.0000 C   0  0  3  0  0  0  0  0  0  0  0  0
    6.8804   -0.4084    0.0000 C   0  0  3  0  0  0  0  0  0  0  0  0
    5.9172   -0.1336    0.0000 C   0  0  0  0  0  0  0  0  0  0  0  0
    6.3971   -0.0786    0.0000 C   0  0  0  0  0  0  0  0  0  0  0  0
    7.2102   -0.8917    0.0000 C   0  0  0  0  0  0  0  0  0  0  0  0
    5.6897    0.8402    0.0000 C   0  0  0  0  0  0  0  0  0  0  0  0
    6.6134   -5.6106    0.0000 C   0  0  0  0  0  0  0  0  0  0  0  0
    7.7724   -4.0031    0.0000 C   0  0  0  0  0  0  0  0  0  0  0  0
    5.9435   -6.3531    0.0000 C   0  0  0  0  0  0  0  0  0  0  0  0
    7.3287    1.2646    0.0000 C   0  0  0  0  0  0  0  0  0  0  0  0
    8.7384   -3.7442    0.0000 C   0  0  0  0  0  0  0  0  0  0  0  0
    8.0358    1.9717    0.0000 C   0  0  3  0  0  0  0  0  0  0  0  0
    8.9972   -2.7783    0.0000 C   0  0  0  0  0  0  0  0  0  0  0  0
    9.4455   -4.4514    0.0000 C   0  0  0  0  0  0  0  0  0  0  0  0
    7.7770    2.9377    0.0000 C   0  0  3  0  0  0  0  0  0  0  0  0
    9.9631   -2.5195    0.0000 C   0  0  0  0  0  0  0  0  0  0  0  0
   10.4114   -4.1925    0.0000 C   0  0  0  0  0  0  0  0  0  0  0  0
   10.6702   -3.2266    0.0000 C   0  0  0  0  0  0  0  0  0  0  0  0
    8.4841    3.6448    0.0000 C   0  0  0  0  0  0  0  0  0  0  0  0
    9.4500    3.3860    0.0000 C   0  0  0  0  0  0  0  0  0  0  0  0
    8.2253    4.6107    0.0000 C   0  0  0  0  0  0  0  0  0  0  0  0
    6.5522    4.1624    0.0000 C   0  0  0  0  0  0  0  0  0  0  0  0
   10.1571    4.0930    0.0000 C   0  0  0  0  0  0  0  0  0  0  0  0
    8.9324    5.3178    0.0000 C   0  0  0  0  0  0  0  0  0  0  0  0
    9.8983    5.0590    0.0000 C   0  0  0  0  0  0  0  0  0  0  0  0
    5.3275    5.3872    0.0000 C   0  0  0  0  0  0  0  0  0  0  0  0
    5.0687    6.3531    0.0000 C   0  0  0  0  0  0  0  0  0  0  0  0
    4.3616    5.1283    0.0000 C   0  0  0  0  0  0  0  0  0  0  0  0
    6.2934    5.6460    0.0000 C   0  0  0  0  0  0  0  0  0  0  0  0
    5.7148   -3.7257    0.0000 H   0  0  0  0  0  0  0  0  0  0  0  0
    4.1294   -5.5834    0.0000 H   0  0  0  0  0  0  0  0  0  0  0  0
    6.1400   -3.6558    0.0000 H   0  0  0  0  0  0  0  0  0  0  0  0
    2.9201   -4.0311    0.0000 H   0  0  0  0  0  0  0  0  0  0  0  0
    2.9243   -4.6620    0.0000 H   0  0  0  0  0  0  0  0  0  0  0  0
    3.4078   -5.2971    0.0000 H   0  0  0  0  0  0  0  0  0  0  0  0
    6.3585   -5.7644    0.0000 H   0  0  0  0  0  0  0  0  0  0  0  0
    6.4645   -4.8934    0.0000 H   0  0  0  0  0  0  0  0  0  0  0  0
    7.5297   -1.8657    0.0000 H   0  0  0  0  0  0  0  0  0  0  0  0
    7.7099   -1.0945    0.0000 H   0  0  0  0  0  0  0  0  0  0  0  0
    3.5650   -2.0817    0.0000 H   0  0  0  0  0  0  0  0  0  0  0  0
    2.7550   -2.4172    0.0000 H   0  0  0  0  0  0  0  0  0  0  0  0
    3.0905   -3.2273    0.0000 H   0  0  0  0  0  0  0  0  0  0  0  0
    4.3726   -0.5813    0.0000 H   0  0  0  0  0  0  0  0  0  0  0  0
    7.4806   -0.5640    0.0000 H   0  0  0  0  0  0  0  0  0  0  0  0
    6.9959   -0.2390    0.0000 H   0  0  0  0  0  0  0  0  0  0  0  0
    6.5575    0.5203    0.0000 H   0  0  0  0  0  0  0  0  0  0  0  0
    5.7982    0.0819    0.0000 H   0  0  0  0  0  0  0  0  0  0  0  0
    7.3707   -1.4906    0.0000 H   0  0  0  0  0  0  0  0  0  0  0  0
    7.8091   -0.7313    0.0000 H   0  0  0  0  0  0  0  0  0  0  0  0
    7.0498   -0.2929    0.0000 H   0  0  0  0  0  0  0  0  0  0  0  0
    7.7921   -1.5763    0.0000 H   0  0  0  0  0  0  0  0  0  0  0  0
    2.0000   -3.6368    0.0000 H   0  0  0  0  0  0  0  0  0  0  0  0
    6.2935    0.9812    0.0000 H   0  0  0  0  0  0  0  0  0  0  0  0
    5.5487    1.4439    0.0000 H   0  0  0  0  0  0  0  0  0  0  0  0
    5.0860    0.6991    0.0000 H   0  0  0  0  0  0  0  0  0  0  0  0
    3.7050    0.1166    0.0000 H   0  0  0  0  0  0  0  0  0  0  0  0
    5.4832   -5.9377    0.0000 H   0  0  0  0  0  0  0  0  0  0  0  0
    5.5282   -6.8134    0.0000 H   0  0  0  0  0  0  0  0  0  0  0  0
    6.4038   -6.7684    0.0000 H   0  0  0  0  0  0  0  0  0  0  0  0
    8.4742    2.4101    0.0000 H   0  0  0  0  0  0  0  0  0  0  0  0
    8.5588   -2.3399    0.0000 H   0  0  0  0  0  0  0  0  0  0  0  0
    9.2850   -5.0502    0.0000 H   0  0  0  0  0  0  0  0  0  0  0  0
    7.6165    3.5365    0.0000 H   0  0  0  0  0  0  0  0  0  0  0  0
   10.1236   -1.9206    0.0000 H   0  0  0  0  0  0  0  0  0  0  0  0
   10.8498   -4.6310    0.0000 H   0  0  0  0  0  0  0  0  0  0  0  0
    9.1622    1.1140    0.0000 H   0  0  0  0  0  0  0  0  0  0  0  0
   11.2691   -3.0662    0.0000 H   0  0  0  0  0  0  0  0  0  0  0  0
    6.3726    2.7581    0.0000 H   0  0  0  0  0  0  0  0  0  0  0  0
    9.6105    2.7871    0.0000 H   0  0  0  0  0  0  0  0  0  0  0  0
    7.6264    4.7712    0.0000 H   0  0  0  0  0  0  0  0  0  0  0  0
   10.7560    3.9326    0.0000 H   0  0  0  0  0  0  0  0  0  0  0  0
    8.7719    5.9167    0.0000 H   0  0  0  0  0  0  0  0  0  0  0  0
   10.3367    5.4974    0.0000 H   0  0  0  0  0  0  0  0  0  0  0  0
    5.6675    6.5135    0.0000 H   0  0  0  0  0  0  0  0  0  0  0  0
    4.9082    6.9520    0.0000 H   0  0  0  0  0  0  0  0  0  0  0  0
    4.4698    6.1926    0.0000 H   0  0  0  0  0  0  0  0  0  0  0  0
    4.2011    5.7272    0.0000 H   0  0  0  0  0  0  0  0  0  0  0  0
    3.7627    4.9679    0.0000 H   0  0  0  0  0  0  0  0  0  0  0  0
    4.5220    4.5294    0.0000 H   0  0  0  0  0  0  0  0  0  0  0  0
    6.4539    5.0471    0.0000 H   0  0  0  0  0  0  0  0  0  0  0  0
    6.8923    5.8064    0.0000 H   0  0  0  0  0  0  0  0  0  0  0  0
    6.1330    6.2448    0.0000 H   0  0  0  0  0  0  0  0  0  0  0  0
  1 19  1  0  0  0  0
  1 25  1  0  0  0  0
  2 17  1  0  0  0  0
  2 36  1  0  0  0  0
  3 20  1  0  0  0  0
  3 37  1  0  0  0  0
  4 21  1  0  0  0  0
  4 80  1  0  0  0  0
  5 22  1  0  0  0  0
  5 81  1  0  0  0  0
  6 26  2  0  0  0  0
  7 30  1  0  0  0  0
  7 85  1  0  0  0  0
  8 31  1  0  0  0  0
  8 39  1  0  0  0  0
  9 36  2  0  0  0  0
 10 37  2  0  0  0  0
 11 39  2  0  0  0  0
 12 41  1  0  0  0  0
 12 95  1  0  0  0  0
 13 51  1  0  0  0  0
 13 55  1  0  0  0  0
 14 51  2  0  0  0  0
 15 44  1  0  0  0  0
 15 51  1  0  0  0  0
 15 97  1  0  0  0  0
 16 17  1  0  0  0  0
 16 18  1  0  0  0  0
 16 20  1  0  0  0  0
 16 59  1  0  0  0  0
 17 19  1  0  0  0  0
 17 25  1  0  0  0  0
 18 22  1  0  0  0  0
 18 26  1  0  0  0  0
 18 29  1  0  0  0  0
 19 23  1  0  0  0  0
 19 60  1  0  0  0  0
 20 21  1  0  0  0  0
 20 61  1  0  0  0  0
 21 24  1  0  0  0  0
 21 27  1  0  0  0  0
 22 23  1  0  0  0  0
 22 62  1  0  0  0  0
 23 63  1  0  0  0  0
 23 64  1  0  0  0  0
 24 28  1  0  0  0  0
 24 33  1  0  0  0  0
 24 34  1  0  0  0  0
 25 65  1  0  0  0  0
 25 66  1  0  0  0  0
 26 30  1  0  0  0  0
 27 31  1  0  0  0  0
 27 67  1  0  0  0  0
 27 68  1  0  0  0  0
 28 30  1  0  0  0  0
 28 32  2  0  0  0  0
 29 69  1  0  0  0  0
 29 70  1  0  0  0  0
 29 71  1  0  0  0  0
 30 72  1  0  0  0  0
 31 32  1  0  0  0  0
 31 73  1  0  0  0  0
 32 35  1  0  0  0  0
 33 74  1  0  0  0  0
 33 75  1  0  0  0  0
 33 76  1  0  0  0  0
 34 77  1  0  0  0  0
 34 78  1  0  0  0  0
 34 79  1  0  0  0  0
 35 82  1  0  0  0  0
 35 83  1  0  0  0  0
 35 84  1  0  0  0  0
 36 38  1  0  0  0  0
 37 40  1  0  0  0  0
 38 86  1  0  0  0  0
 38 87  1  0  0  0  0
 38 88  1  0  0  0  0
 39 41  1  0  0  0  0
 40 42  2  0  0  0  0
 40 43  1  0  0  0  0
 41 44  1  0  0  0  0
 41 89  1  0  0  0  0
 42 45  1  0  0  0  0
 42 90  1  0  0  0  0
 43 46  2  0  0  0  0
 43 91  1  0  0  0  0
 44 48  1  0  0  0  0
 44 92  1  0  0  0  0
 45 47  2  0  0  0  0
 45 93  1  0  0  0  0
 46 47  1  0  0  0  0
 46 94  1  0  0  0  0
 47 96  1  0  0  0  0
 48 49  2  0  0  0  0
 48 50  1  0  0  0  0
 49 52  1  0  0  0  0
 49 98  1  0  0  0  0
 50 53  2  0  0  0  0
 50 99  1  0  0  0  0
 52 54  2  0  0  0  0
 52100  1  0  0  0  0
 53 54  1  0  0  0  0
 53101  1  0  0  0  0
 54102  1  0  0  0  0
 55 56  1  0  0  0  0
 55 57  1  0  0  0  0
 55 58  1  0  0  0  0
 56103  1  0  0  0  0
 56104  1  0  0  0  0
 56105  1  0  0  0  0
 57106  1  0  0  0  0
 57107  1  0  0  0  0
 57108  1  0  0  0  0
 58109  1  0  0  0  0
 58110  1  0  0  0  0
 58111  1  0  0  0  0
M  END
> <PUBCHEM_COMPOUND_CID>
3143

> <PUBCHEM_COMPOUND_CANONICALIZED>
1

> <PUBCHEM_CACTVS_COMPLEXITY>
1660

> <PUBCHEM_CACTVS_HBOND_ACCEPTOR>
14

> <PUBCHEM_CACTVS_HBOND_DONOR>
5

> <PUBCHEM_CACTVS_ROTATABLE_BOND>
13

> <PUBCHEM_CACTVS_SUBSKEYS>
AAADcfB+PAAAAAAAAAAAAAAAAABIAAAAAAAwYMEAAAAaIACBQAAAHgAQCAAAD3zhmAYyCILABgCIAqDSGAKCAAAkAAAIiIFIDMkLNj6AtRmOcQhn9gEbuYfa7PzPgAAAAAAAAABCAAYQADCAAAAAAAAAAA==

> <PUBCHEM_IUPAC_INCHI>
InChI=1S/C43H53NO14/c1-22-26(55-37(51)32(48)30(24-15-11-9-12-16-24)44-38(52)58-39(3,4)5)20-43(53)35(56-36(50)25-17-13-10-14-18-25)33-41(8,34(49)31(47)29(22)40(43,6)7)27(46)19-28-42(33,21-54-28)57-23(2)45/h9-18,26-28,30-33,35,46-48,53H,19-21H2,1-8H3,(H,44,52)

> <PUBCHEM_IUPAC_INCHIKEY>
ZDZOTLJHXYCWBA-UHFFFAOYSA-N

> <PUBCHEM_XLOGP3>
1.6

> <PUBCHEM_EXACT_MASS>
807.346605

> <PUBCHEM_MOLECULAR_FORMULA>
C43H53NO14

> <PUBCHEM_MOLECULAR_WEIGHT>
807.87922

> <PUBCHEM_OPENEYE_CAN_SMILES>
CC1=C2C(C(=O)C3(C(CC4C(C3C(C(C2(C)C)(CC1OC(=O)C(C(C5=CC=CC=C5)NC(=O)OC(C)(C)C)O)O)OC(=O)C6=CC=CC=C6)(CO4)OC(=O)C)O)C)O

> <PUBCHEM_OPENEYE_ISO_SMILES>
CC1=C2C(C(=O)C3(C(CC4C(C3C(C(C2(C)C)(CC1OC(=O)C(C(C5=CC=CC=C5)NC(=O)OC(C)(C)C)O)O)OC(=O)C6=CC=CC=C6)(CO4)OC(=O)C)O)C)O

> <PUBCHEM_CACTVS_TPSA>
224

> <PUBCHEM_MONOISOTOPIC_WEIGHT>
807.346605

> <PUBCHEM_TOTAL_CHARGE>
0

> <PUBCHEM_HEAVY_ATOM_COUNT>
58

> <PUBCHEM_ATOM_DEF_STEREO_COUNT>
0

> <PUBCHEM_ATOM_UDEF_STEREO_COUNT>
11

> <PUBCHEM_BOND_DEF_STEREO_COUNT>
0

> <PUBCHEM_BOND_UDEF_STEREO_COUNT>
0

> <PUBCHEM_ISOTOPIC_ATOM_COUNT>
0

> <PUBCHEM_COMPONENT_COUNT>
1

> <PUBCHEM_CACTVS_TAUTO_COUNT>
18

> <PUBCHEM_COORDINATE_TYPE>
1
5
255

> <PUBCHEM_BONDANNOTATIONS>
41  12  3
44  15  3
16  20  3
18  29  3
19  23  3
17  2  3
20  3  3
21  4  3
40  42  8
40  43  8
42  45  8
43  46  8
45  47  8
46  47  8
48  49  8
48  50  8
49  52  8
22  5  3
50  53  8
52  54  8
53  54  8
30  7  3
31  8  3

$$$$
