3454
  -OEChem-12171208022D

 31 32  0     0  0  0  0  0  0999 V2000
    7.3704    0.4273    0.0000 O   0  0  0  0  0  0  0  0  0  0  0  0
    8.9702    2.5346    0.0000 O   0  0  0  0  0  0  0  0  0  0  0  0
    7.3239    3.0727    0.0000 O   0  0  0  0  0  0  0  0  0  0  0  0
    4.2690   -3.5341    0.0000 O   0  0  0  0  0  0  0  0  0  0  0  0
    6.0812   -0.7294    0.0000 N   0  0  0  0  0  0  0  0  0  0  0  0
    4.2690   -0.5341    0.0000 N   0  0  0  0  0  0  0  0  0  0  0  0
    6.0812   -2.3389    0.0000 N   0  0  0  0  0  0  0  0  0  0  0  0
    3.4030   -2.0341    0.0000 N   0  0  0  0  0  0  0  0  0  0  0  0
    2.5369   -0.5341    0.0000 N   0  0  0  0  0  0  0  0  0  0  0  0
    7.6811    1.3778    0.0000 C   0  0  0  0  0  0  0  0  0  0  0  0
    6.3919    0.2211    0.0000 C   0  0  0  0  0  0  0  0  0  0  0  0
    5.1350   -1.0341    0.0000 C   0  0  0  0  0  0  0  0  0  0  0  0
    5.1350   -2.0341    0.0000 C   0  0  0  0  0  0  0  0  0  0  0  0
    6.6648   -1.5341    0.0000 C   0  0  0  0  0  0  0  0  0  0  0  0
    8.6596    1.5841    0.0000 C   0  0  0  0  0  0  0  0  0  0  0  0
    7.0132    2.1222    0.0000 C   0  0  0  0  0  0  0  0  0  0  0  0
    4.2690   -2.5341    0.0000 C   0  0  0  0  0  0  0  0  0  0  0  0
    3.4030   -1.0341    0.0000 C   0  0  0  0  0  0  0  0  0  0  0  0
    7.0744    1.2500    0.0000 H   0  0  0  0  0  0  0  0  0  0  0  0
    6.3713    0.8408    0.0000 H   0  0  0  0  0  0  0  0  0  0  0  0
    5.7781    0.3085    0.0000 H   0  0  0  0  0  0  0  0  0  0  0  0
    8.6801    0.9644    0.0000 H   0  0  0  0  0  0  0  0  0  0  0  0
    9.2734    1.4967    0.0000 H   0  0  0  0  0  0  0  0  0  0  0  0
    6.4663    2.4142    0.0000 H   0  0  0  0  0  0  0  0  0  0  0  0
    6.6307    1.6342    0.0000 H   0  0  0  0  0  0  0  0  0  0  0  0
    7.2848   -1.5341    0.0000 H   0  0  0  0  0  0  0  0  0  0  0  0
    4.2690    0.0859    0.0000 H   0  0  0  0  0  0  0  0  0  0  0  0
    9.5769    2.6625    0.0000 H   0  0  0  0  0  0  0  0  0  0  0  0
    6.9098    3.5341    0.0000 H   0  0  0  0  0  0  0  0  0  0  0  0
    2.0000   -0.8441    0.0000 H   0  0  0  0  0  0  0  0  0  0  0  0
    2.5369    0.0859    0.0000 H   0  0  0  0  0  0  0  0  0  0  0  0
  1 10  1  0  0  0  0
  1 11  1  0  0  0  0
  2 15  1  0  0  0  0
  2 28  1  0  0  0  0
  3 16  1  0  0  0  0
  3 29  1  0  0  0  0
  4 17  2  0  0  0  0
  5 11  1  0  0  0  0
  5 12  1  0  0  0  0
  5 14  1  0  0  0  0
  6 12  1  0  0  0  0
  6 18  1  0  0  0  0
  6 27  1  0  0  0  0
  7 13  1  0  0  0  0
  7 14  2  0  0  0  0
  8 17  1  0  0  0  0
  8 18  2  0  0  0  0
  9 18  1  0  0  0  0
  9 30  1  0  0  0  0
  9 31  1  0  0  0  0
 10 15  1  0  0  0  0
 10 16  1  0  0  0  0
 10 19  1  0  0  0  0
 11 20  1  0  0  0  0
 11 21  1  0  0  0  0
 12 13  2  0  0  0  0
 13 17  1  0  0  0  0
 14 26  1  0  0  0  0
 15 22  1  0  0  0  0
 15 23  1  0  0  0  0
 16 24  1  0  0  0  0
 16 25  1  0  0  0  0
M  END
> <PUBCHEM_COMPOUND_CID>
3454

> <PUBCHEM_COMPOUND_CANONICALIZED>
1

> <PUBCHEM_CACTVS_COMPLEXITY>
346

> <PUBCHEM_CACTVS_HBOND_ACCEPTOR>
5

> <PUBCHEM_CACTVS_HBOND_DONOR>
4

> <PUBCHEM_CACTVS_ROTATABLE_BOND>
5

> <PUBCHEM_CACTVS_SUBSKEYS>
AAADccBzuAAAAAAAAAAAAAAAAAAAAWAAAAAgAAAAAAAAAEABgAAAHgAQCAAACByhlgYFsBfMFgCoAQdxdACAgC0XEKABUAGoVECBWAhASCAcQIAJAAJDAGAAAAAAAAAAAAAAAAAAAAAAAAAAAAAAAAAAAA==

> <PUBCHEM_IUPAC_OPENEYE_NAME>
2-amino-9-[[2-hydroxy-1-(hydroxymethyl)ethoxy]methyl]-3H-purin-6-one

> <PUBCHEM_IUPAC_CAS_NAME>
2-amino-9-(1,3-dihydroxypropan-2-yloxymethyl)-3H-purin-6-one

> <PUBCHEM_IUPAC_NAME>
2-amino-9-(1,3-dihydroxypropan-2-yloxymethyl)-3H-purin-6-one

> <PUBCHEM_IUPAC_SYSTEMATIC_NAME>
2-azanyl-9-[1,3-bis(oxidanyl)propan-2-yloxymethyl]-3H-purin-6-one

> <PUBCHEM_IUPAC_TRADITIONAL_NAME>
2-amino-9-[(2-hydroxy-1-methylol-ethoxy)methyl]-3H-purin-6-one

> <PUBCHEM_IUPAC_INCHI>
InChI=1S/C9H13N5O4/c10-9-12-7-6(8(17)13-9)11-3-14(7)4-18-5(1-15)2-16/h3,5,15-16H,1-2,4H2,(H3,10,12,13,17)

> <PUBCHEM_IUPAC_INCHIKEY>
IRSCQMHQWWYFCW-UHFFFAOYSA-N

> <PUBCHEM_XLOGP3>
-1.7

> <PUBCHEM_EXACT_MASS>
255.096754

> <PUBCHEM_MOLECULAR_FORMULA>
C9H13N5O4

> <PUBCHEM_MOLECULAR_WEIGHT>
255.23062

> <PUBCHEM_OPENEYE_CAN_SMILES>
C1=NC2=C(N1COC(CO)CO)NC(=NC2=O)N

> <PUBCHEM_OPENEYE_ISO_SMILES>
C1=NC2=C(N1COC(CO)CO)NC(=NC2=O)N

> <PUBCHEM_CACTVS_TPSA>
135

> <PUBCHEM_MONOISOTOPIC_WEIGHT>
255.096754

> <PUBCHEM_TOTAL_CHARGE>
0

> <PUBCHEM_HEAVY_ATOM_COUNT>
18

> <PUBCHEM_ATOM_DEF_STEREO_COUNT>
0

> <PUBCHEM_ATOM_UDEF_STEREO_COUNT>
0

> <PUBCHEM_BOND_DEF_STEREO_COUNT>
0

> <PUBCHEM_BOND_UDEF_STEREO_COUNT>
0

> <PUBCHEM_ISOTOPIC_ATOM_COUNT>
0

> <PUBCHEM_COMPONENT_COUNT>
1

> <PUBCHEM_CACTVS_TAUTO_COUNT>
9

> <PUBCHEM_COORDINATE_TYPE>
1
5
255

> <PUBCHEM_BONDANNOTATIONS>
12  13  8
13  17  8
5  12  8
5  14  8
6  12  8
6  18  8
7  13  8
7  14  8
8  17  8
8  18  8

$$$$
