3468412
  -OEChem-12171208242D

140141  0     1  0  0  0  0  0999 V2000
   10.8654   -5.5701    0.0000 O   0  0  0  0  0  0  0  0  0  0  0  0
   12.3410   -4.6630    0.0000 O   0  0  0  0  0  0  0  0  0  0  0  0
   13.3883   -6.3669    0.0000 O   0  0  0  0  0  0  0  0  0  0  0  0
   10.4372   -8.1809    0.0000 O   0  0  0  0  0  0  0  0  0  0  0  0
   14.0923   -3.1378    0.0000 O   0  0  0  0  0  0  0  0  0  0  0  0
   15.2534   -1.1266    0.0000 O   0  0  0  0  0  0  0  0  0  0  0  0
    5.4758    6.5053    0.0000 O   0  0  0  0  0  0  0  0  0  0  0  0
   14.9412    4.5325    0.0000 O   0  0  0  0  0  0  0  0  0  0  0  0
   15.3797    3.4530    0.0000 O   0  0  0  0  0  0  0  0  0  0  0  0
   12.6664    7.1445    0.0000 O   0  0  0  0  0  0  0  0  0  0  0  0
   15.6222   -1.6803    0.0000 O   0  0  0  0  0  0  0  0  0  0  0  0
   10.5662    8.1357    0.0000 O   0  0  0  0  0  0  0  0  0  0  0  0
    2.5369    4.8745    0.0000 O   0  0  0  0  0  0  0  0  0  0  0  0
   14.7562   -3.1803    0.0000 O   0  0  0  0  0  0  0  0  0  0  0  0
   15.6987    1.1527    0.0000 O   0  0  0  0  0  0  0  0  0  0  0  0
    8.2579    8.3911    0.0000 O   0  0  0  0  0  0  0  0  0  0  0  0
    5.9918    7.8833    0.0000 O   0  0  0  0  0  0  0  0  0  0  0  0
   12.4364   -8.1258    0.0000 N   0  0  0  0  0  0  0  0  0  0  0  0
   11.9127   -7.2739    0.0000 C   0  0  3  0  0  0  0  0  0  0  0  0
   12.3887   -6.3944    0.0000 C   0  0  3  0  0  0  0  0  0  0  0  0
   10.9131   -7.3015    0.0000 C   0  0  3  0  0  0  0  0  0  0  0  0
   11.8650   -5.5425    0.0000 C   0  0  3  0  0  0  0  0  0  0  0  0
   10.3894   -6.4495    0.0000 C   0  0  3  0  0  0  0  0  0  0  0  0
   11.8173   -3.8111    0.0000 C   0  0  3  0  0  0  0  0  0  0  0  0
   12.6230   -3.2189    0.0000 C   0  0  0  0  0  0  0  0  0  0  0  0
   13.3203   -2.5021    0.0000 C   0  0  3  0  0  0  0  0  0  0  0  0
   13.8902   -1.6803    0.0000 C   0  0  3  0  0  0  0  0  0  0  0  0
    9.3898   -6.4771    0.0000 C   0  0  0  0  0  0  0  0  0  0  0  0
   14.3169   -0.7760    0.0000 C   0  0  3  0  0  0  0  0  0  0  0  0
   14.5890    0.1863    0.0000 C   0  0  0  0  0  0  0  0  0  0  0  0
   10.9250   -4.2626    0.0000 C   0  0  0  0  0  0  0  0  0  0  0  0
   14.0490    4.0810    0.0000 C   0  0  3  0  0  0  0  0  0  0  0  0
   14.4253    3.1545    0.0000 C   0  0  3  0  0  0  0  0  0  0  0  0
   13.5253    4.9329    0.0000 C   0  0  0  0  0  0  0  0  0  0  0  0
   12.8685    5.6870    0.0000 C   0  0  0  0  0  0  0  0  0  0  0  0
   12.0966    6.3228    0.0000 C   0  0  3  0  0  0  0  0  0  0  0  0
   14.6440    2.1787    0.0000 C   0  0  0  0  0  0  0  0  0  0  0  0
    3.9728    5.1962    0.0000 C   0  0  3  0  0  0  0  0  0  0  0  0
   11.2306    6.8228    0.0000 C   0  0  0  0  0  0  0  0  0  0  0  0
   14.7562   -2.1803    0.0000 C   0  0  0  0  0  0  0  0  0  0  0  0
   14.6990    1.1802    0.0000 C   0  0  0  0  0  0  0  0  0  0  0  0
   10.2941    7.1734    0.0000 C   0  0  3  0  0  0  0  0  0  0  0  0
    3.4030    4.3745    0.0000 C   0  0  3  0  0  0  0  0  0  0  0  0
    4.6701    5.9130    0.0000 C   0  0  3  0  0  0  0  0  0  0  0  0
    9.3126    7.3651    0.0000 C   0  0  0  0  0  0  0  0  0  0  0  0
    2.9762    3.4701    0.0000 C   0  0  3  0  0  0  0  0  0  0  0  0
    8.3130    7.3927    0.0000 C   0  0  3  0  0  0  0  0  0  0  0  0
    3.2008    5.8320    0.0000 C   0  0  0  0  0  0  0  0  0  0  0  0
    9.9706   -4.5612    0.0000 C   0  0  0  0  0  0  0  0  0  0  0  0
    7.3225    7.2553    0.0000 C   0  0  0  0  0  0  0  0  0  0  0  0
    4.0133    6.6671    0.0000 C   0  0  0  0  0  0  0  0  0  0  0  0
    2.0397    3.8207    0.0000 C   0  0  0  0  0  0  0  0  0  0  0  0
    6.3681    6.9568    0.0000 C   0  0  0  0  0  0  0  0  0  0  0  0
    2.7041    2.5078    0.0000 C   0  0  0  0  0  0  0  0  0  0  0  0
    8.9801   -4.6985    0.0000 C   0  0  0  0  0  0  0  0  0  0  0  0
    2.5941    1.5139    0.0000 C   0  0  0  0  0  0  0  0  0  0  0  0
    7.9805   -4.6710    0.0000 C   0  0  0  0  0  0  0  0  0  0  0  0
    2.6492    0.5154    0.0000 C   0  0  0  0  0  0  0  0  0  0  0  0
    6.9990   -4.4793    0.0000 C   0  0  0  0  0  0  0  0  0  0  0  0
    2.8678   -0.4604    0.0000 C   0  0  0  0  0  0  0  0  0  0  0  0
    3.2442   -1.3869    0.0000 C   0  0  0  0  0  0  0  0  0  0  0  0
    6.0625   -4.1286    0.0000 C   0  0  0  0  0  0  0  0  0  0  0  0
    3.7678   -2.2388    0.0000 C   0  0  0  0  0  0  0  0  0  0  0  0
    5.1965   -3.6286    0.0000 C   0  0  0  0  0  0  0  0  0  0  0  0
    4.4246   -2.9929    0.0000 C   0  0  0  0  0  0  0  0  0  0  0  0
   12.5325   -7.2568    0.0000 H   0  0  0  0  0  0  0  0  0  0  0  0
   12.7134   -6.9226    0.0000 H   0  0  0  0  0  0  0  0  0  0  0  0
   11.2378   -7.8296    0.0000 H   0  0  0  0  0  0  0  0  0  0  0  0
   11.5403   -5.0143    0.0000 H   0  0  0  0  0  0  0  0  0  0  0  0
   10.0648   -5.9214    0.0000 H   0  0  0  0  0  0  0  0  0  0  0  0
   11.6486   -4.4077    0.0000 H   0  0  0  0  0  0  0  0  0  0  0  0
   12.7251   -3.8304    0.0000 H   0  0  0  0  0  0  0  0  0  0  0  0
   12.2159   -2.7513    0.0000 H   0  0  0  0  0  0  0  0  0  0  0  0
   13.9345   -2.4169    0.0000 H   0  0  0  0  0  0  0  0  0  0  0  0
   14.4819   -1.4952    0.0000 H   0  0  0  0  0  0  0  0  0  0  0  0
    9.3727   -5.8573    0.0000 H   0  0  0  0  0  0  0  0  0  0  0  0
    8.7701   -6.4942    0.0000 H   0  0  0  0  0  0  0  0  0  0  0  0
    9.4069   -7.0968    0.0000 H   0  0  0  0  0  0  0  0  0  0  0  0
   12.1413   -8.6711    0.0000 H   0  0  0  0  0  0  0  0  0  0  0  0
   13.0562   -8.1087    0.0000 H   0  0  0  0  0  0  0  0  0  0  0  0
   14.8701   -0.4960    0.0000 H   0  0  0  0  0  0  0  0  0  0  0  0
   13.7130   -6.8951    0.0000 H   0  0  0  0  0  0  0  0  0  0  0  0
    9.8174   -8.1980    0.0000 H   0  0  0  0  0  0  0  0  0  0  0  0
   15.0452   -0.2336    0.0000 H   0  0  0  0  0  0  0  0  0  0  0  0
   13.9805    0.3052    0.0000 H   0  0  0  0  0  0  0  0  0  0  0  0
   11.1583   -4.8371    0.0000 H   0  0  0  0  0  0  0  0  0  0  0  0
   14.6296    3.8636    0.0000 H   0  0  0  0  0  0  0  0  0  0  0  0
   14.6899    3.7152    0.0000 H   0  0  0  0  0  0  0  0  0  0  0  0
   14.1432    4.9841    0.0000 H   0  0  0  0  0  0  0  0  0  0  0  0
   13.0257    4.5657    0.0000 H   0  0  0  0  0  0  0  0  0  0  0  0
   13.4696    5.8392    0.0000 H   0  0  0  0  0  0  0  0  0  0  0  0
   12.4362    5.2426    0.0000 H   0  0  0  0  0  0  0  0  0  0  0  0
   12.7107    6.4079    0.0000 H   0  0  0  0  0  0  0  0  0  0  0  0
   15.2117    1.9297    0.0000 H   0  0  0  0  0  0  0  0  0  0  0  0
   14.0298    2.0936    0.0000 H   0  0  0  0  0  0  0  0  0  0  0  0
    3.3586    5.1111    0.0000 H   0  0  0  0  0  0  0  0  0  0  0  0
   11.7496    7.1619    0.0000 H   0  0  0  0  0  0  0  0  0  0  0  0
   10.9660    6.2621    0.0000 H   0  0  0  0  0  0  0  0  0  0  0  0
   10.8473    7.4534    0.0000 H   0  0  0  0  0  0  0  0  0  0  0  0
    3.2674    4.9795    0.0000 H   0  0  0  0  0  0  0  0  0  0  0  0
    4.7383    6.5293    0.0000 H   0  0  0  0  0  0  0  0  0  0  0  0
   13.9902   -3.7494    0.0000 H   0  0  0  0  0  0  0  0  0  0  0  0
    9.6934    7.8544    0.0000 H   0  0  0  0  0  0  0  0  0  0  0  0
    9.2444    6.7489    0.0000 H   0  0  0  0  0  0  0  0  0  0  0  0
    2.7429    4.0445    0.0000 H   0  0  0  0  0  0  0  0  0  0  0  0
    7.8344    7.7868    0.0000 H   0  0  0  0  0  0  0  0  0  0  0  0
   15.7320   -0.7324    0.0000 H   0  0  0  0  0  0  0  0  0  0  0  0
    3.5950    6.3106    0.0000 H   0  0  0  0  0  0  0  0  0  0  0  0
    2.7223    6.2261    0.0000 H   0  0  0  0  0  0  0  0  0  0  0  0
    2.8067    5.3534    0.0000 H   0  0  0  0  0  0  0  0  0  0  0  0
   10.1062   -5.1662    0.0000 H   0  0  0  0  0  0  0  0  0  0  0  0
    7.5238    7.8417    0.0000 H   0  0  0  0  0  0  0  0  0  0  0  0
    7.4581    6.6503    0.0000 H   0  0  0  0  0  0  0  0  0  0  0  0
    4.4809    7.0743    0.0000 H   0  0  0  0  0  0  0  0  0  0  0  0
    3.6061    7.1347    0.0000 H   0  0  0  0  0  0  0  0  0  0  0  0
    3.5458    6.2599    0.0000 H   0  0  0  0  0  0  0  0  0  0  0  0
    2.2571    4.4014    0.0000 H   0  0  0  0  0  0  0  0  0  0  0  0
    1.4590    4.0381    0.0000 H   0  0  0  0  0  0  0  0  0  0  0  0
    1.8223    3.2401    0.0000 H   0  0  0  0  0  0  0  0  0  0  0  0
   14.9754    5.1516    0.0000 H   0  0  0  0  0  0  0  0  0  0  0  0
   15.8358    3.0331    0.0000 H   0  0  0  0  0  0  0  0  0  0  0  0
   13.2843    7.0933    0.0000 H   0  0  0  0  0  0  0  0  0  0  0  0
    2.0956    2.6267    0.0000 H   0  0  0  0  0  0  0  0  0  0  0  0
   16.1591   -1.9903    0.0000 H   0  0  0  0  0  0  0  0  0  0  0  0
   10.1339    8.5801    0.0000 H   0  0  0  0  0  0  0  0  0  0  0  0
    2.0000    4.5645    0.0000 H   0  0  0  0  0  0  0  0  0  0  0  0
    9.0143   -5.3176    0.0000 H   0  0  0  0  0  0  0  0  0  0  0  0
    7.7047    8.6711    0.0000 H   0  0  0  0  0  0  0  0  0  0  0  0
    1.9743    1.5310    0.0000 H   0  0  0  0  0  0  0  0  0  0  0  0
    7.9123   -5.2872    0.0000 H   0  0  0  0  0  0  0  0  0  0  0  0
    2.0350    0.4303    0.0000 H   0  0  0  0  0  0  0  0  0  0  0  0
    6.8303   -5.0759    0.0000 H   0  0  0  0  0  0  0  0  0  0  0  0
    2.2761   -0.6454    0.0000 H   0  0  0  0  0  0  0  0  0  0  0  0
    2.6263   -1.3357    0.0000 H   0  0  0  0  0  0  0  0  0  0  0  0
    3.7974   -1.1069    0.0000 H   0  0  0  0  0  0  0  0  0  0  0  0
    5.7979   -4.6893    0.0000 H   0  0  0  0  0  0  0  0  0  0  0  0
    3.1499   -2.2900    0.0000 H   0  0  0  0  0  0  0  0  0  0  0  0
    4.2674   -1.8716    0.0000 H   0  0  0  0  0  0  0  0  0  0  0  0
    4.8432   -4.1381    0.0000 H   0  0  0  0  0  0  0  0  0  0  0  0
    3.9922   -3.4373    0.0000 H   0  0  0  0  0  0  0  0  0  0  0  0
  1 22  1  0  0  0  0
  1 23  1  0  0  0  0
  2 22  1  0  0  0  0
  2 24  1  0  0  0  0
  3 20  1  0  0  0  0
  3 82  1  0  0  0  0
  4 21  1  0  0  0  0
  4 83  1  0  0  0  0
  5 26  1  0  0  0  0
  5102  1  0  0  0  0
  6 29  1  0  0  0  0
  6107  1  0  0  0  0
  7 44  1  0  0  0  0
  7 53  1  0  0  0  0
  8 32  1  0  0  0  0
  8120  1  0  0  0  0
  9 33  1  0  0  0  0
  9121  1  0  0  0  0
 10 36  1  0  0  0  0
 10122  1  0  0  0  0
 11 40  1  0  0  0  0
 11124  1  0  0  0  0
 12 42  1  0  0  0  0
 12125  1  0  0  0  0
 13 43  1  0  0  0  0
 13126  1  0  0  0  0
 14 40  2  0  0  0  0
 15 41  2  0  0  0  0
 16 47  1  0  0  0  0
 16128  1  0  0  0  0
 17 53  2  0  0  0  0
 18 19  1  0  0  0  0
 18 79  1  0  0  0  0
 18 80  1  0  0  0  0
 19 20  1  0  0  0  0
 19 21  1  0  0  0  0
 19 66  1  0  0  0  0
 20 22  1  0  0  0  0
 20 67  1  0  0  0  0
 21 23  1  0  0  0  0
 21 68  1  0  0  0  0
 22 69  1  0  0  0  0
 23 28  1  0  0  0  0
 23 70  1  0  0  0  0
 24 25  1  0  0  0  0
 24 31  1  0  0  0  0
 24 71  1  0  0  0  0
 25 26  1  0  0  0  0
 25 72  1  0  0  0  0
 25 73  1  0  0  0  0
 26 27  1  0  0  0  0
 26 74  1  0  0  0  0
 27 29  1  0  0  0  0
 27 40  1  0  0  0  0
 27 75  1  0  0  0  0
 28 76  1  0  0  0  0
 28 77  1  0  0  0  0
 28 78  1  0  0  0  0
 29 30  1  0  0  0  0
 29 81  1  0  0  0  0
 30 41  1  0  0  0  0
 30 84  1  0  0  0  0
 30 85  1  0  0  0  0
 31 49  2  3  0  0  0
 31 86  1  0  0  0  0
 32 33  1  0  0  0  0
 32 34  1  0  0  0  0
 32 87  1  0  0  0  0
 33 37  1  0  0  0  0
 33 88  1  0  0  0  0
 34 35  1  0  0  0  0
 34 89  1  0  0  0  0
 34 90  1  0  0  0  0
 35 36  1  0  0  0  0
 35 91  1  0  0  0  0
 35 92  1  0  0  0  0
 36 39  1  0  0  0  0
 36 93  1  0  0  0  0
 37 41  1  0  0  0  0
 37 94  1  0  0  0  0
 37 95  1  0  0  0  0
 38 43  1  0  0  0  0
 38 44  1  0  0  0  0
 38 48  1  0  0  0  0
 38 96  1  0  0  0  0
 39 42  1  0  0  0  0
 39 97  1  0  0  0  0
 39 98  1  0  0  0  0
 42 45  1  0  0  0  0
 42 99  1  0  0  0  0
 43 46  1  0  0  0  0
 43100  1  0  0  0  0
 44 51  1  0  0  0  0
 44101  1  0  0  0  0
 45 47  1  0  0  0  0
 45103  1  0  0  0  0
 45104  1  0  0  0  0
 46 52  1  0  0  0  0
 46 54  1  0  0  0  0
 46105  1  0  0  0  0
 47 50  1  0  0  0  0
 47106  1  0  0  0  0
 48108  1  0  0  0  0
 48109  1  0  0  0  0
 48110  1  0  0  0  0
 49 55  1  0  0  0  0
 49111  1  0  0  0  0
 50 53  1  0  0  0  0
 50112  1  0  0  0  0
 50113  1  0  0  0  0
 51114  1  0  0  0  0
 51115  1  0  0  0  0
 51116  1  0  0  0  0
 52117  1  0  0  0  0
 52118  1  0  0  0  0
 52119  1  0  0  0  0
 54 56  2  3  0  0  0
 54123  1  0  0  0  0
 55 57  2  3  0  0  0
 55127  1  0  0  0  0
 56 58  1  0  0  0  0
 56129  1  0  0  0  0
 57 59  1  0  0  0  0
 57130  1  0  0  0  0
 58 60  2  3  0  0  0
 58131  1  0  0  0  0
 59 62  2  3  0  0  0
 59132  1  0  0  0  0
 60 61  1  0  0  0  0
 60133  1  0  0  0  0
 61 63  1  0  0  0  0
 61134  1  0  0  0  0
 61135  1  0  0  0  0
 62 64  1  0  0  0  0
 62136  1  0  0  0  0
 63 65  1  0  0  0  0
 63137  1  0  0  0  0
 63138  1  0  0  0  0
 64 65  2  3  0  0  0
 64139  1  0  0  0  0
 65140  1  0  0  0  0
M  END
> <PUBCHEM_COMPOUND_CID>
3468412

> <PUBCHEM_COMPOUND_CANONICALIZED>
1

> <PUBCHEM_CACTVS_COMPLEXITY>
1600

> <PUBCHEM_CACTVS_HBOND_ACCEPTOR>
18

> <PUBCHEM_CACTVS_HBOND_DONOR>
12

> <PUBCHEM_CACTVS_ROTATABLE_BOND>
3

> <PUBCHEM_CACTVS_SUBSKEYS>
AAADcfB+PgAAAAAAAAAAAAAAAAAAAAAAAAAkAAAAAAAAAAAAAAAAHgAQCAAADTzxgAcCCABABgCIAKDSCAAAAAAgAAAICIEAAAgbFBYAoQAiUAAH8AAPoAPK7uzuAAAAAAAAAAAAAAAAAAAAAAAAAAAAAA==

> <PUBCHEM_IUPAC_OPENEYE_NAME>
20-(4-amino-3,5-dihydroxy-6-methyl-tetrahydropyran-2-yl)oxy-4,6,8,11,12,16,18,36-octahydroxy-35,37,38-trimethyl-2,14-dioxo-1-oxacyclooctatriaconta-21,23,25,27,31,33-hexaene-17-carboxylic acid

> <PUBCHEM_IUPAC_CAS_NAME>
20-[(4-amino-3,5-dihydroxy-6-methyl-2-oxanyl)oxy]-4,6,8,11,12,16,18,36-octahydroxy-35,37,38-trimethyl-2,14-dioxo-1-oxacyclooctatriaconta-21,23,25,27,31,33-hexaene-17-carboxylic acid

> <PUBCHEM_IUPAC_NAME>
20-(4-amino-3,5-dihydroxy-6-methyloxan-2-yl)oxy-4,6,8,11,12,16,18,36-octahydroxy-35,37,38-trimethyl-2,14-dioxo-1-oxacyclooctatriaconta-21,23,25,27,31,33-hexaene-17-carboxylic acid

> <PUBCHEM_IUPAC_SYSTEMATIC_NAME>
20-[4-azanyl-6-methyl-3,5-bis(oxidanyl)oxan-2-yl]oxy-35,37,38-trimethyl-4,6,8,11,12,16,18,36-octakis(oxidanyl)-2,14-bis(oxidanylidene)-1-oxacyclooctatriaconta-21,23,25,27,31,33-hexaene-17-carboxylic acid

> <PUBCHEM_IUPAC_TRADITIONAL_NAME>
20-(4-amino-3,5-dihydroxy-6-methyl-tetrahydropyran-2-yl)oxy-4,6,8,11,12,16,18,36-octahydroxy-2,14-diketo-35,37,38-trimethyl-1-oxacyclooctatriaconta-21,23,25,27,31,33-hexaene-17-carboxylic acid

> <PUBCHEM_IUPAC_INCHI>
InChI=1S/C47H75NO17/c1-27-17-15-13-11-9-7-5-6-8-10-12-14-16-18-35(65-47-45(60)42(48)44(59)30(4)64-47)26-39(56)41(46(61)62)38(55)24-34(52)23-37(54)36(53)20-19-31(49)21-32(50)22-33(51)25-40(57)63-29(3)28(2)43(27)58/h5-6,8,10-18,27-33,35-39,41-45,47,49-51,53-56,58-60H,7,9,19-26,48H2,1-4H3,(H,61,62)

> <PUBCHEM_IUPAC_INCHIKEY>
ZDFDJJJGIRGMBE-UHFFFAOYSA-N

> <PUBCHEM_XLOGP3_AA>
-0.3

> <PUBCHEM_EXACT_MASS>
925.5035

> <PUBCHEM_MOLECULAR_FORMULA>
C47H75NO17

> <PUBCHEM_MOLECULAR_WEIGHT>
926.0949

> <PUBCHEM_OPENEYE_CAN_SMILES>
CC1C=CC=CCCC=CC=CC=CC=CC(CC(C(C(CC(=O)CC(C(CCC(CC(CC(CC(=O)OC(C(C1O)C)C)O)O)O)O)O)O)C(=O)O)O)OC2C(C(C(C(O2)C)O)N)O

> <PUBCHEM_OPENEYE_ISO_SMILES>
CC1C=CC=CCCC=CC=CC=CC=CC(CC(C(C(CC(=O)CC(C(CCC(CC(CC(CC(=O)OC(C(C1O)C)C)O)O)O)O)O)O)C(=O)O)O)OC2C(C(C(C(O2)C)O)N)O

> <PUBCHEM_CACTVS_TPSA>
327

> <PUBCHEM_MONOISOTOPIC_WEIGHT>
925.5035

> <PUBCHEM_TOTAL_CHARGE>
0

> <PUBCHEM_HEAVY_ATOM_COUNT>
65

> <PUBCHEM_ATOM_DEF_STEREO_COUNT>
0

> <PUBCHEM_ATOM_UDEF_STEREO_COUNT>
18

> <PUBCHEM_BOND_DEF_STEREO_COUNT>
0

> <PUBCHEM_BOND_UDEF_STEREO_COUNT>
6

> <PUBCHEM_ISOTOPIC_ATOM_COUNT>
0

> <PUBCHEM_COMPONENT_COUNT>
1

> <PUBCHEM_CACTVS_TAUTO_COUNT>
6

> <PUBCHEM_COORDINATE_TYPE>
1
5
255

> <PUBCHEM_BONDANNOTATIONS>
36  10  3
42  12  3
43  13  3
47  16  3
19  18  3
22  2  3
24  2  3
23  28  3
27  40  3
20  3  3
31  49  1
38  48  3
21  4  3
44  51  3
46  52  3
26  5  3
54  56  1
55  57  1
58  60  1
59  62  1
29  6  3
64  65  1
32  8  3
33  9  3

$$$$
