3636
  -OEChem-12171208032D

 56 59  0     1  0  0  0  0  0999 V2000
    2.0000   -0.9775    0.0000 O   0  0  0  0  0  0  0  0  0  0  0  0
    8.1803   -0.6513    0.0000 O   0  0  0  0  0  0  0  0  0  0  0  0
    7.7320   -2.3244    0.0000 O   0  0  0  0  0  0  0  0  0  0  0  0
   11.0780   -1.4278    0.0000 O   0  0  0  0  0  0  0  0  0  0  0  0
    4.2547    1.9713    0.0000 N   0  3  0  0  0  0  0  0  0  0  0  0
    4.9913    0.9887    0.0000 C   0  0  3  0  0  0  0  0  0  0  0  0
    4.7325    0.0228    0.0000 C   0  0  3  0  0  0  0  0  0  0  0  0
    2.5004   -0.1112    0.0000 C   0  0  3  0  0  0  0  0  0  0  0  0
    3.0004   -0.9772    0.0000 C   0  0  3  0  0  0  0  0  0  0  0  0
    6.4372   -1.0218    0.0000 C   0  0  0  0  0  0  0  0  0  0  0  0
    6.8560    0.5411    0.0000 C   0  0  0  0  0  0  0  0  0  0  0  0
    7.2143   -0.3925    0.0000 C   0  0  0  0  0  0  0  0  0  0  0  0
    4.3592    2.9659    0.0000 C   0  0  0  0  0  0  0  0  0  0  0  0
    3.3412    2.3781    0.0000 C   0  0  0  0  0  0  0  0  0  0  0  0
    5.2728    3.3726    0.0000 C   0  0  0  0  0  0  0  0  0  0  0  0
    5.3773    4.3671    0.0000 C   0  0  0  0  0  0  0  0  0  0  0  0
    8.4391   -1.6173    0.0000 C   0  0  0  0  0  0  0  0  0  0  0  0
    6.2908    4.7739    0.0000 C   0  0  0  0  0  0  0  0  0  0  0  0
    9.4050   -1.8761    0.0000 C   0  0  3  0  0  0  0  0  0  0  0  0
   10.1121   -1.1690    0.0000 C   0  0  0  0  0  0  0  0  0  0  0  0
    9.6638   -2.8420    0.0000 C   0  0  0  0  0  0  0  0  0  0  0  0
    8.9567   -3.5491    0.0000 C   0  0  0  0  0  0  0  0  0  0  0  0
   10.6298   -3.1008    0.0000 C   0  0  0  0  0  0  0  0  0  0  0  0
    9.2155   -4.5150    0.0000 C   0  0  0  0  0  0  0  0  0  0  0  0
   10.8886   -4.0668    0.0000 C   0  0  0  0  0  0  0  0  0  0  0  0
   10.1815   -4.7739    0.0000 C   0  0  0  0  0  0  0  0  0  0  0  0
    5.3319    1.5068    0.0000 H   0  0  0  0  0  0  0  0  0  0  0  0
    5.2332    0.3884    0.0000 H   0  0  0  0  0  0  0  0  0  0  0  0
    2.0864    0.3503    0.0000 H   0  0  0  0  0  0  0  0  0  0  0  0
    3.1610   -1.5760    0.0000 H   0  0  0  0  0  0  0  0  0  0  0  0
    6.0555   -1.5104    0.0000 H   0  0  0  0  0  0  0  0  0  0  0  0
    6.8794   -1.4564    0.0000 H   0  0  0  0  0  0  0  0  0  0  0  0
    7.4675    0.6434    0.0000 H   0  0  0  0  0  0  0  0  0  0  0  0
    6.8776    1.1607    0.0000 H   0  0  0  0  0  0  0  0  0  0  0  0
    7.6292    0.0682    0.0000 H   0  0  0  0  0  0  0  0  0  0  0  0
    4.2092    3.5674    0.0000 H   0  0  0  0  0  0  0  0  0  0  0  0
    3.7407    2.9226    0.0000 H   0  0  0  0  0  0  0  0  0  0  0  0
    3.5933    2.9445    0.0000 H   0  0  0  0  0  0  0  0  0  0  0  0
    2.7748    2.6303    0.0000 H   0  0  0  0  0  0  0  0  0  0  0  0
    3.0890    1.8117    0.0000 H   0  0  0  0  0  0  0  0  0  0  0  0
    5.4228    2.7710    0.0000 H   0  0  0  0  0  0  0  0  0  0  0  0
    5.8913    3.4158    0.0000 H   0  0  0  0  0  0  0  0  0  0  0  0
    5.2273    4.9687    0.0000 H   0  0  0  0  0  0  0  0  0  0  0  0
    4.7588    4.3239    0.0000 H   0  0  0  0  0  0  0  0  0  0  0  0
    6.5430    4.2075    0.0000 H   0  0  0  0  0  0  0  0  0  0  0  0
    6.8572    5.0260    0.0000 H   0  0  0  0  0  0  0  0  0  0  0  0
    6.0387    5.3403    0.0000 H   0  0  0  0  0  0  0  0  0  0  0  0
   10.0039   -2.0366    0.0000 H   0  0  0  0  0  0  0  0  0  0  0  0
   10.3741   -0.6071    0.0000 H   0  0  0  0  0  0  0  0  0  0  0  0
    9.6042   -0.8134    0.0000 H   0  0  0  0  0  0  0  0  0  0  0  0
    8.3578   -3.3886    0.0000 H   0  0  0  0  0  0  0  0  0  0  0  0
   11.0682   -2.6624    0.0000 H   0  0  0  0  0  0  0  0  0  0  0  0
   11.5164   -0.9894    0.0000 H   0  0  0  0  0  0  0  0  0  0  0  0
    8.7771   -4.9534    0.0000 H   0  0  0  0  0  0  0  0  0  0  0  0
   11.4874   -4.2272    0.0000 H   0  0  0  0  0  0  0  0  0  0  0  0
   10.3419   -5.3727    0.0000 H   0  0  0  0  0  0  0  0  0  0  0  0
  1  8  1  0  0  0  0
  1  9  1  0  0  0  0
  2 12  1  0  0  0  0
  2 17  1  0  0  0  0
  3 17  2  0  0  0  0
  4 20  1  0  0  0  0
  4 53  1  0  0  0  0
  5  6  1  0  0  0  0
  5  7  1  0  0  0  0
  5 13  1  0  0  0  0
  5 14  1  0  0  0  0
  6  8  1  0  0  0  0
  6 11  1  0  0  0  0
  6 27  1  0  0  0  0
  7  9  1  0  0  0  0
  7 10  1  0  0  0  0
  7 28  1  0  0  0  0
  8  9  1  0  0  0  0
  8 29  1  0  0  0  0
  9 30  1  0  0  0  0
 10 12  1  0  0  0  0
 10 31  1  0  0  0  0
 10 32  1  0  0  0  0
 11 12  1  0  0  0  0
 11 33  1  0  0  0  0
 11 34  1  0  0  0  0
 12 35  1  0  0  0  0
 13 15  1  0  0  0  0
 13 36  1  0  0  0  0
 13 37  1  0  0  0  0
 14 38  1  0  0  0  0
 14 39  1  0  0  0  0
 14 40  1  0  0  0  0
 15 16  1  0  0  0  0
 15 41  1  0  0  0  0
 15 42  1  0  0  0  0
 16 18  1  0  0  0  0
 16 43  1  0  0  0  0
 16 44  1  0  0  0  0
 17 19  1  0  0  0  0
 18 45  1  0  0  0  0
 18 46  1  0  0  0  0
 18 47  1  0  0  0  0
 19 20  1  0  0  0  0
 19 21  1  0  0  0  0
 19 48  1  0  0  0  0
 20 49  1  0  0  0  0
 20 50  1  0  0  0  0
 21 22  2  0  0  0  0
 21 23  1  0  0  0  0
 22 24  1  0  0  0  0
 22 51  1  0  0  0  0
 23 25  2  0  0  0  0
 23 52  1  0  0  0  0
 24 26  2  0  0  0  0
 24 54  1  0  0  0  0
 25 26  1  0  0  0  0
 25 55  1  0  0  0  0
 26 56  1  0  0  0  0
M  CHG  1   5   1
M  END
> <PUBCHEM_COMPOUND_CID>
3636

> <PUBCHEM_COMPOUND_CANONICALIZED>
1

> <PUBCHEM_CACTVS_COMPLEXITY>
500

> <PUBCHEM_CACTVS_HBOND_ACCEPTOR>
4

> <PUBCHEM_CACTVS_HBOND_DONOR>
1

> <PUBCHEM_CACTVS_ROTATABLE_BOND>
8

> <PUBCHEM_CACTVS_SUBSKEYS>
AAADceB6OAAAAAAAAAAAAAAAEgAAAWAAAAA8WIAABgAAAAABAAAAHgAACAAADTzhmAYyCIMABgCIAiDSCAACAAAgAAAIiAEIAIgKMDaAlRCHYAAn4AGYiAfY6OyOgAAAAAAAAAAAAAAAAAAAAAAAAAAAAA==

> <PUBCHEM_IUPAC_INCHI>
InChI=1S/C21H30NO4/c1-3-4-10-22(2)17-11-15(12-18(22)20-19(17)26-20)25-21(24)16(13-23)14-8-6-5-7-9-14/h5-9,15-20,23H,3-4,10-13H2,1-2H3/q+1

> <PUBCHEM_IUPAC_INCHIKEY>
YBCNXCRZPWQOBR-UHFFFAOYSA-N

> <PUBCHEM_XLOGP3_AA>
2.6

> <PUBCHEM_EXACT_MASS>
360.217483

> <PUBCHEM_MOLECULAR_FORMULA>
C21H30NO4+

> <PUBCHEM_MOLECULAR_WEIGHT>
360.4672

> <PUBCHEM_OPENEYE_CAN_SMILES>
CCCC[N+]1(C2CC(CC1C3C2O3)OC(=O)C(CO)C4=CC=CC=C4)C

> <PUBCHEM_OPENEYE_ISO_SMILES>
CCCC[N+]1(C2CC(CC1C3C2O3)OC(=O)C(CO)C4=CC=CC=C4)C

> <PUBCHEM_CACTVS_TPSA>
59.1

> <PUBCHEM_MONOISOTOPIC_WEIGHT>
360.217483

> <PUBCHEM_TOTAL_CHARGE>
1

> <PUBCHEM_HEAVY_ATOM_COUNT>
26

> <PUBCHEM_ATOM_DEF_STEREO_COUNT>
0

> <PUBCHEM_ATOM_UDEF_STEREO_COUNT>
5

> <PUBCHEM_BOND_DEF_STEREO_COUNT>
0

> <PUBCHEM_BOND_UDEF_STEREO_COUNT>
0

> <PUBCHEM_ISOTOPIC_ATOM_COUNT>
0

> <PUBCHEM_COMPONENT_COUNT>
1

> <PUBCHEM_CACTVS_TAUTO_COUNT>
1

> <PUBCHEM_COORDINATE_TYPE>
1
5
255

> <PUBCHEM_BONDANNOTATIONS>
8  1  3
9  1  3
19  20  3
21  22  8
21  23  8
22  24  8
23  25  8
24  26  8
25  26  8
6  11  3
7  10  3

$$$$
