3724
  -OEChem-12171208032D

106107  0     1  0  0  0  0  0999 V2000
    4.2690   -1.6550    0.0000 I   0  0  0  0  0  0  0  0  0  0  0  0
    8.5991    2.8450    0.0000 I   0  0  0  0  0  0  0  0  0  0  0  0
    7.7331   -1.6550    0.0000 I   0  0  0  0  0  0  0  0  0  0  0  0
   10.3312   -0.1550    0.0000 I   0  0  0  0  0  0  0  0  0  0  0  0
   12.0632    2.8450    0.0000 I   0  0  0  0  0  0  0  0  0  0  0  0
    6.0010   -4.6550    0.0000 I   0  0  0  0  0  0  0  0  0  0  0  0
    6.0010    1.3450    0.0000 O   0  0  0  0  0  0  0  0  0  0  0  0
    4.2690   -0.6550    0.0000 O   0  0  0  0  0  0  0  0  0  0  0  0
    7.7331   -0.6550    0.0000 O   0  0  0  0  0  0  0  0  0  0  0  0
    8.5991   -3.1550    0.0000 O   0  0  0  0  0  0  0  0  0  0  0  0
   12.0632   -0.1550    0.0000 O   0  0  0  0  0  0  0  0  0  0  0  0
    3.4030   -3.1550    0.0000 O   0  0  0  0  0  0  0  0  0  0  0  0
    9.4651    4.3450    0.0000 O   0  0  0  0  0  0  0  0  0  0  0  0
   14.6613    2.3450    0.0000 O   0  0  0  0  0  0  0  0  0  0  0  0
    7.7331   -6.6550    0.0000 O   0  0  0  0  0  0  0  0  0  0  0  0
   12.9292    5.3450    0.0000 O   0  0  0  0  0  0  0  0  0  0  0  0
    4.2690   -6.6550    0.0000 O   0  0  0  0  0  0  0  0  0  0  0  0
   16.3933    1.3450    0.0000 O   0  0  0  0  0  0  0  0  0  0  0  0
    9.4651   -7.6550    0.0000 O   0  0  0  0  0  0  0  0  0  0  0  0
   12.9292    7.3450    0.0000 O   0  0  0  0  0  0  0  0  0  0  0  0
    2.5369   -7.6550    0.0000 O   0  0  0  0  0  0  0  0  0  0  0  0
    6.0010   -0.6550    0.0000 N   0  0  0  0  0  0  0  0  0  0  0  0
    8.5991    0.8450    0.0000 N   0  0  0  0  0  0  0  0  0  0  0  0
   12.9292    1.3450    0.0000 N   0  0  0  0  0  0  0  0  0  0  0  0
    7.7331   -4.6550    0.0000 N   0  0  0  0  0  0  0  0  0  0  0  0
   11.1972    4.3450    0.0000 N   0  0  0  0  0  0  0  0  0  0  0  0
    4.2690   -4.6550    0.0000 N   0  0  0  0  0  0  0  0  0  0  0  0
    6.8671    0.8450    0.0000 C   0  0  0  0  0  0  0  0  0  0  0  0
    7.7331    1.3450    0.0000 C   0  0  0  0  0  0  0  0  0  0  0  0
    6.8671   -0.1550    0.0000 C   0  0  0  0  0  0  0  0  0  0  0  0
    6.0010   -1.6550    0.0000 C   0  0  0  0  0  0  0  0  0  0  0  0
    9.4651    1.3450    0.0000 C   0  0  0  0  0  0  0  0  0  0  0  0
    5.1350   -0.1550    0.0000 C   0  0  0  0  0  0  0  0  0  0  0  0
    8.5991   -0.1550    0.0000 C   0  0  0  0  0  0  0  0  0  0  0  0
    5.1350   -2.1550    0.0000 C   0  0  0  0  0  0  0  0  0  0  0  0
    9.4651    2.3450    0.0000 C   0  0  0  0  0  0  0  0  0  0  0  0
    6.8671   -2.1550    0.0000 C   0  0  0  0  0  0  0  0  0  0  0  0
   10.3312    0.8450    0.0000 C   0  0  0  0  0  0  0  0  0  0  0  0
    5.1350   -3.1550    0.0000 C   0  0  0  0  0  0  0  0  0  0  0  0
   10.3312    2.8450    0.0000 C   0  0  0  0  0  0  0  0  0  0  0  0
    6.8671   -3.1550    0.0000 C   0  0  0  0  0  0  0  0  0  0  0  0
   11.1972    1.3450    0.0000 C   0  0  0  0  0  0  0  0  0  0  0  0
   11.1972    2.3450    0.0000 C   0  0  0  0  0  0  0  0  0  0  0  0
    6.0010   -3.6550    0.0000 C   0  0  0  0  0  0  0  0  0  0  0  0
    9.4651   -0.6550    0.0000 C   0  0  0  0  0  0  0  0  0  0  0  0
    5.1350    0.8450    0.0000 C   0  0  0  0  0  0  0  0  0  0  0  0
    7.7331   -3.6550    0.0000 C   0  0  0  0  0  0  0  0  0  0  0  0
   12.0632    0.8450    0.0000 C   0  0  0  0  0  0  0  0  0  0  0  0
    4.2690   -3.6550    0.0000 C   0  0  0  0  0  0  0  0  0  0  0  0
   10.3312    3.8450    0.0000 C   0  0  0  0  0  0  0  0  0  0  0  0
    8.5991   -5.1550    0.0000 C   0  0  0  0  0  0  0  0  0  0  0  0
   13.7953    0.8450    0.0000 C   0  0  0  0  0  0  0  0  0  0  0  0
    3.4030   -5.1550    0.0000 C   0  0  0  0  0  0  0  0  0  0  0  0
   11.1972    5.3450    0.0000 C   0  0  0  0  0  0  0  0  0  0  0  0
    8.5991   -6.1550    0.0000 C   0  0  3  0  0  0  0  0  0  0  0  0
   14.6613    1.3450    0.0000 C   0  0  3  0  0  0  0  0  0  0  0  0
    3.4030   -6.1550    0.0000 C   0  0  3  0  0  0  0  0  0  0  0  0
   12.0632    5.8450    0.0000 C   0  0  3  0  0  0  0  0  0  0  0  0
   15.5273    0.8450    0.0000 C   0  0  0  0  0  0  0  0  0  0  0  0
    9.4651   -6.6550    0.0000 C   0  0  0  0  0  0  0  0  0  0  0  0
   12.0632    6.8450    0.0000 C   0  0  0  0  0  0  0  0  0  0  0  0
    2.5369   -6.6550    0.0000 C   0  0  0  0  0  0  0  0  0  0  0  0
    6.3301    0.5350    0.0000 H   0  0  0  0  0  0  0  0  0  0  0  0
    7.0791   -0.7376    0.0000 H   0  0  0  0  0  0  0  0  0  0  0  0
    7.4776   -0.0473    0.0000 H   0  0  0  0  0  0  0  0  0  0  0  0
    8.1316    1.8200    0.0000 H   0  0  0  0  0  0  0  0  0  0  0  0
    7.3346    1.8200    0.0000 H   0  0  0  0  0  0  0  0  0  0  0  0
    6.0010    1.9650    0.0000 H   0  0  0  0  0  0  0  0  0  0  0  0
    9.1551   -1.1919    0.0000 H   0  0  0  0  0  0  0  0  0  0  0  0
    5.7550    0.8450    0.0000 H   0  0  0  0  0  0  0  0  0  0  0  0
    5.1350    1.4650    0.0000 H   0  0  0  0  0  0  0  0  0  0  0  0
    4.5150    0.8450    0.0000 H   0  0  0  0  0  0  0  0  0  0  0  0
   10.0021   -0.9650    0.0000 H   0  0  0  0  0  0  0  0  0  0  0  0
    9.7751   -0.1181    0.0000 H   0  0  0  0  0  0  0  0  0  0  0  0
   12.9292    1.9650    0.0000 H   0  0  0  0  0  0  0  0  0  0  0  0
    7.1962   -4.9650    0.0000 H   0  0  0  0  0  0  0  0  0  0  0  0
   11.7341    4.0350    0.0000 H   0  0  0  0  0  0  0  0  0  0  0  0
    4.8059   -4.9650    0.0000 H   0  0  0  0  0  0  0  0  0  0  0  0
   13.3967    0.3701    0.0000 H   0  0  0  0  0  0  0  0  0  0  0  0
   14.1938    0.3701    0.0000 H   0  0  0  0  0  0  0  0  0  0  0  0
    9.2097   -5.2627    0.0000 H   0  0  0  0  0  0  0  0  0  0  0  0
    8.8112   -4.5724    0.0000 H   0  0  0  0  0  0  0  0  0  0  0  0
   10.9851    5.9276    0.0000 H   0  0  0  0  0  0  0  0  0  0  0  0
   10.5866    5.2373    0.0000 H   0  0  0  0  0  0  0  0  0  0  0  0
    3.1909   -4.5724    0.0000 H   0  0  0  0  0  0  0  0  0  0  0  0
    2.7924   -5.2627    0.0000 H   0  0  0  0  0  0  0  0  0  0  0  0
    8.5991   -6.7750    0.0000 H   0  0  0  0  0  0  0  0  0  0  0  0
   14.1244    1.6550    0.0000 H   0  0  0  0  0  0  0  0  0  0  0  0
    3.4030   -6.7750    0.0000 H   0  0  0  0  0  0  0  0  0  0  0  0
   12.6002    6.1550    0.0000 H   0  0  0  0  0  0  0  0  0  0  0  0
   10.0757   -6.7627    0.0000 H   0  0  0  0  0  0  0  0  0  0  0  0
    9.6772   -6.0724    0.0000 H   0  0  0  0  0  0  0  0  0  0  0  0
   15.1288    0.3701    0.0000 H   0  0  0  0  0  0  0  0  0  0  0  0
   15.9258    0.3701    0.0000 H   0  0  0  0  0  0  0  0  0  0  0  0
    2.3249   -6.0724    0.0000 H   0  0  0  0  0  0  0  0  0  0  0  0
    1.9264   -6.7627    0.0000 H   0  0  0  0  0  0  0  0  0  0  0  0
   11.8512    7.4276    0.0000 H   0  0  0  0  0  0  0  0  0  0  0  0
   11.4526    6.7373    0.0000 H   0  0  0  0  0  0  0  0  0  0  0  0
    7.7331   -7.2750    0.0000 H   0  0  0  0  0  0  0  0  0  0  0  0
   15.1982    2.6550    0.0000 H   0  0  0  0  0  0  0  0  0  0  0  0
    4.2690   -7.2750    0.0000 H   0  0  0  0  0  0  0  0  0  0  0  0
   13.4662    5.6550    0.0000 H   0  0  0  0  0  0  0  0  0  0  0  0
   10.0021   -7.9650    0.0000 H   0  0  0  0  0  0  0  0  0  0  0  0
   16.9303    1.0350    0.0000 H   0  0  0  0  0  0  0  0  0  0  0  0
    2.0000   -7.9650    0.0000 H   0  0  0  0  0  0  0  0  0  0  0  0
   12.9292    7.9650    0.0000 H   0  0  0  0  0  0  0  0  0  0  0  0
  1 35  1  0  0  0  0
  2 36  1  0  0  0  0
  3 37  1  0  0  0  0
  4 38  1  0  0  0  0
  5 43  1  0  0  0  0
  6 44  1  0  0  0  0
  7 28  1  0  0  0  0
  7 68  1  0  0  0  0
  8 33  2  0  0  0  0
  9 34  2  0  0  0  0
 10 47  2  0  0  0  0
 11 48  2  0  0  0  0
 12 49  2  0  0  0  0
 13 50  2  0  0  0  0
 14 56  1  0  0  0  0
 14100  1  0  0  0  0
 15 55  1  0  0  0  0
 15 99  1  0  0  0  0
 16 58  1  0  0  0  0
 16102  1  0  0  0  0
 17 57  1  0  0  0  0
 17101  1  0  0  0  0
 18 59  1  0  0  0  0
 18104  1  0  0  0  0
 19 60  1  0  0  0  0
 19103  1  0  0  0  0
 20 61  1  0  0  0  0
 20106  1  0  0  0  0
 21 62  1  0  0  0  0
 21105  1  0  0  0  0
 22 30  1  0  0  0  0
 22 31  1  0  0  0  0
 22 33  1  0  0  0  0
 23 29  1  0  0  0  0
 23 32  1  0  0  0  0
 23 34  1  0  0  0  0
 24 48  1  0  0  0  0
 24 52  1  0  0  0  0
 24 75  1  0  0  0  0
 25 47  1  0  0  0  0
 25 51  1  0  0  0  0
 25 76  1  0  0  0  0
 26 50  1  0  0  0  0
 26 54  1  0  0  0  0
 26 77  1  0  0  0  0
 27 49  1  0  0  0  0
 27 53  1  0  0  0  0
 27 78  1  0  0  0  0
 28 29  1  0  0  0  0
 28 30  1  0  0  0  0
 28 63  1  0  0  0  0
 29 66  1  0  0  0  0
 29 67  1  0  0  0  0
 30 64  1  0  0  0  0
 30 65  1  0  0  0  0
 31 35  2  0  0  0  0
 31 37  1  0  0  0  0
 32 36  2  0  0  0  0
 32 38  1  0  0  0  0
 33 46  1  0  0  0  0
 34 45  1  0  0  0  0
 35 39  1  0  0  0  0
 36 40  1  0  0  0  0
 37 41  2  0  0  0  0
 38 42  2  0  0  0  0
 39 44  2  0  0  0  0
 39 49  1  0  0  0  0
 40 43  2  0  0  0  0
 40 50  1  0  0  0  0
 41 44  1  0  0  0  0
 41 47  1  0  0  0  0
 42 43  1  0  0  0  0
 42 48  1  0  0  0  0
 45 69  1  0  0  0  0
 45 73  1  0  0  0  0
 45 74  1  0  0  0  0
 46 70  1  0  0  0  0
 46 71  1  0  0  0  0
 46 72  1  0  0  0  0
 51 55  1  0  0  0  0
 51 81  1  0  0  0  0
 51 82  1  0  0  0  0
 52 56  1  0  0  0  0
 52 79  1  0  0  0  0
 52 80  1  0  0  0  0
 53 57  1  0  0  0  0
 53 85  1  0  0  0  0
 53 86  1  0  0  0  0
 54 58  1  0  0  0  0
 54 83  1  0  0  0  0
 54 84  1  0  0  0  0
 55 60  1  0  0  0  0
 55 87  1  0  0  0  0
 56 59  1  0  0  0  0
 56 88  1  0  0  0  0
 57 62  1  0  0  0  0
 57 89  1  0  0  0  0
 58 61  1  0  0  0  0
 58 90  1  0  0  0  0
 59 93  1  0  0  0  0
 59 94  1  0  0  0  0
 60 91  1  0  0  0  0
 60 92  1  0  0  0  0
 61 97  1  0  0  0  0
 61 98  1  0  0  0  0
 62 95  1  0  0  0  0
 62 96  1  0  0  0  0
M  END
> <PUBCHEM_COMPOUND_CID>
3724

> <PUBCHEM_COMPOUND_CANONICALIZED>
1

> <PUBCHEM_CACTVS_COMPLEXITY>
1330

> <PUBCHEM_CACTVS_HBOND_ACCEPTOR>
15

> <PUBCHEM_CACTVS_HBOND_DONOR>
13

> <PUBCHEM_CACTVS_ROTATABLE_BOND>
22

> <PUBCHEM_CACTVS_SUBSKEYS>
AAADcfB/vAAAA4AAAAAAAAAAAAAAAAAAAAAwYAAAAAAAAAABQAAAHgAwCAAADBzjmAYCwIPAAgCIAgVQUACCAAAlAAAAiIEIRMgLMDLA1JGEYQhilgDZyQcci0COAAACQAAAAAAAAASAAAAAAAAAAAAAAA==

> <PUBCHEM_IUPAC_OPENEYE_NAME>
5-[acetyl-[3-[N-acetyl-3,5-bis(2,3-dihydroxypropylcarbamoyl)-2,4,6-triiodo-anilino]-2-hydroxy-propyl]amino]-N1,N3-bis(2,3-dihydroxypropyl)-2,4,6-triiodo-benzene-1,3-dicarboxamide

> <PUBCHEM_IUPAC_CAS_NAME>
5-[acetyl-[3-[N-acetyl-3,5-bis[(2,3-dihydroxypropylamino)-oxomethyl]-2,4,6-triiodoanilino]-2-hydroxypropyl]amino]-N1,N3-bis(2,3-dihydroxypropyl)-2,4,6-triiodobenzene-1,3-dicarboxamide

> <PUBCHEM_IUPAC_NAME>
5-[acetyl-[3-[N-acetyl-3,5-bis(2,3-dihydroxypropylcarbamoyl)-2,4,6-triiodoanilino]-2-hydroxypropyl]amino]-1-N,3-N-bis(2,3-dihydroxypropyl)-2,4,6-triiodobenzene-1,3-dicarboxamide

> <PUBCHEM_IUPAC_SYSTEMATIC_NAME>
5-[[3-[[3,5-bis[2,3-bis(oxidanyl)propylcarbamoyl]-2,4,6-tris(iodanyl)phenyl]-ethanoyl-amino]-2-oxidanyl-propyl]-ethanoyl-amino]-N1,N3-bis[2,3-bis(oxidanyl)propyl]-2,4,6-tris(iodanyl)benzene-1,3-dicarboxamide

> <PUBCHEM_IUPAC_TRADITIONAL_NAME>
5-[acetyl-[3-[N-acetyl-3,5-bis(glycerylcarbamoyl)-2,4,6-triiodo-anilino]-2-hydroxy-propyl]amino]-N,N'-diglyceryl-2,4,6-triiodo-isophthalamide

> <PUBCHEM_IUPAC_INCHI>
InChI=1S/C35H44I6N6O15/c1-13(52)46(30-26(38)20(32(59)42-3-15(54)9-48)24(36)21(27(30)39)33(60)43-4-16(55)10-49)7-19(58)8-47(14(2)53)31-28(40)22(34(61)44-5-17(56)11-50)25(37)23(29(31)41)35(62)45-6-18(57)12-51/h15-19,48-51,54-58H,3-12H2,1-2H3,(H,42,59)(H,43,60)(H,44,61)(H,45,62)

> <PUBCHEM_IUPAC_INCHIKEY>
NBQNWMBBSKPBAY-UHFFFAOYSA-N

> <PUBCHEM_XLOGP3>
-3.4

> <PUBCHEM_EXACT_MASS>
1549.713303

> <PUBCHEM_MOLECULAR_FORMULA>
C35H44I6N6O15

> <PUBCHEM_MOLECULAR_WEIGHT>
1550.18188

> <PUBCHEM_OPENEYE_CAN_SMILES>
CC(=O)N(CC(CN(C1=C(C(=C(C(=C1I)C(=O)NCC(CO)O)I)C(=O)NCC(CO)O)I)C(=O)C)O)C2=C(C(=C(C(=C2I)C(=O)NCC(CO)O)I)C(=O)NCC(CO)O)I

> <PUBCHEM_OPENEYE_ISO_SMILES>
CC(=O)N(CC(CN(C1=C(C(=C(C(=C1I)C(=O)NCC(CO)O)I)C(=O)NCC(CO)O)I)C(=O)C)O)C2=C(C(=C(C(=C2I)C(=O)NCC(CO)O)I)C(=O)NCC(CO)O)I

> <PUBCHEM_CACTVS_TPSA>
339

> <PUBCHEM_MONOISOTOPIC_WEIGHT>
1549.713303

> <PUBCHEM_TOTAL_CHARGE>
0

> <PUBCHEM_HEAVY_ATOM_COUNT>
62

> <PUBCHEM_ATOM_DEF_STEREO_COUNT>
0

> <PUBCHEM_ATOM_UDEF_STEREO_COUNT>
4

> <PUBCHEM_BOND_DEF_STEREO_COUNT>
0

> <PUBCHEM_BOND_UDEF_STEREO_COUNT>
0

> <PUBCHEM_ISOTOPIC_ATOM_COUNT>
0

> <PUBCHEM_COMPONENT_COUNT>
1

> <PUBCHEM_CACTVS_TAUTO_COUNT>
6

> <PUBCHEM_COORDINATE_TYPE>
1
5
255

> <PUBCHEM_BONDANNOTATIONS>
56  14  3
55  15  3
58  16  3
57  17  3
31  35  8
31  37  8
32  36  8
32  38  8
35  39  8
36  40  8
37  41  8
38  42  8
39  44  8
40  43  8
41  44  8
42  43  8

$$$$
