3746
  -OEChem-12171208042D

 54 56  0     1  0  0  0  0  0999 V2000
    5.1350   -0.1836    0.0000 O   0  0  0  0  0  0  0  0  0  0  0  0
    6.0010   -1.6836    0.0000 O   0  0  0  0  0  0  0  0  0  0  0  0
    2.5369   -1.6836    0.0000 O   0  0  0  0  0  0  0  0  0  0  0  0
    7.9719    3.1013    0.0000 N   0  3  0  0  0  0  0  0  0  0  0  0
    8.7086    2.1187    0.0000 C   0  0  3  0  0  0  0  0  0  0  0  0
    8.4497    1.1528    0.0000 C   0  0  3  0  0  0  0  0  0  0  0  0
   10.5405    1.3599    0.0000 C   0  0  0  0  0  0  0  0  0  0  0  0
   10.2817    0.3940    0.0000 C   0  0  0  0  0  0  0  0  0  0  0  0
    6.9146   -0.0904    0.0000 C   0  0  0  0  0  0  0  0  0  0  0  0
    6.1056    1.3109    0.0000 C   0  0  0  0  0  0  0  0  0  0  0  0
    8.0765    4.0958    0.0000 C   0  0  0  0  0  0  0  0  0  0  0  0
    6.0010    0.3164    0.0000 C   0  0  0  0  0  0  0  0  0  0  0  0
    7.0584    3.5081    0.0000 C   0  0  0  0  0  0  0  0  0  0  0  0
    8.9900    4.5026    0.0000 C   0  0  0  0  0  0  0  0  0  0  0  0
    7.2675    4.6836    0.0000 C   0  0  0  0  0  0  0  0  0  0  0  0
    5.1350   -1.1836    0.0000 C   0  0  0  0  0  0  0  0  0  0  0  0
    4.2690   -1.6836    0.0000 C   0  0  3  0  0  0  0  0  0  0  0  0
    3.4030   -1.1836    0.0000 C   0  0  0  0  0  0  0  0  0  0  0  0
    4.2690   -2.6836    0.0000 C   0  0  0  0  0  0  0  0  0  0  0  0
    3.4030   -3.1836    0.0000 C   0  0  0  0  0  0  0  0  0  0  0  0
    5.1350   -3.1836    0.0000 C   0  0  0  0  0  0  0  0  0  0  0  0
    3.4030   -4.1836    0.0000 C   0  0  0  0  0  0  0  0  0  0  0  0
    5.1350   -4.1836    0.0000 C   0  0  0  0  0  0  0  0  0  0  0  0
    4.2690   -4.6836    0.0000 C   0  0  0  0  0  0  0  0  0  0  0  0
    8.5717    0.3116    0.0000 H   0  0  0  0  0  0  0  0  0  0  0  0
    8.6696    1.2696    0.0000 H   0  0  0  0  0  0  0  0  0  0  0  0
   11.1318    1.1735    0.0000 H   0  0  0  0  0  0  0  0  0  0  0  0
   10.7526    1.9425    0.0000 H   0  0  0  0  0  0  0  0  0  0  0  0
   10.0696   -0.1886    0.0000 H   0  0  0  0  0  0  0  0  0  0  0  0
   10.8730    0.2075    0.0000 H   0  0  0  0  0  0  0  0  0  0  0  0
    6.0033    1.9224    0.0000 H   0  0  0  0  0  0  0  0  0  0  0  0
    5.4858    1.2920    0.0000 H   0  0  0  0  0  0  0  0  0  0  0  0
    6.5769   -0.6103    0.0000 H   0  0  0  0  0  0  0  0  0  0  0  0
    7.3753   -0.5052    0.0000 H   0  0  0  0  0  0  0  0  0  0  0  0
    8.5781    3.7314    0.0000 H   0  0  0  0  0  0  0  0  0  0  0  0
    5.4811    0.6540    0.0000 H   0  0  0  0  0  0  0  0  0  0  0  0
    7.3106    4.0745    0.0000 H   0  0  0  0  0  0  0  0  0  0  0  0
    6.4920    3.7602    0.0000 H   0  0  0  0  0  0  0  0  0  0  0  0
    6.8062    2.9417    0.0000 H   0  0  0  0  0  0  0  0  0  0  0  0
    9.2422    3.9362    0.0000 H   0  0  0  0  0  0  0  0  0  0  0  0
    9.5564    4.7548    0.0000 H   0  0  0  0  0  0  0  0  0  0  0  0
    8.7378    5.0690    0.0000 H   0  0  0  0  0  0  0  0  0  0  0  0
    7.6319    5.1852    0.0000 H   0  0  0  0  0  0  0  0  0  0  0  0
    6.7659    5.0480    0.0000 H   0  0  0  0  0  0  0  0  0  0  0  0
    6.9030    4.1820    0.0000 H   0  0  0  0  0  0  0  0  0  0  0  0
    4.2690   -0.8336    0.0000 H   0  0  0  0  0  0  0  0  0  0  0  0
    3.8015   -0.7087    0.0000 H   0  0  0  0  0  0  0  0  0  0  0  0
    3.0044   -0.7087    0.0000 H   0  0  0  0  0  0  0  0  0  0  0  0
    2.8660   -2.8736    0.0000 H   0  0  0  0  0  0  0  0  0  0  0  0
    5.6720   -2.8736    0.0000 H   0  0  0  0  0  0  0  0  0  0  0  0
    2.0000   -1.3736    0.0000 H   0  0  0  0  0  0  0  0  0  0  0  0
    2.8660   -4.4936    0.0000 H   0  0  0  0  0  0  0  0  0  0  0  0
    5.6720   -4.4936    0.0000 H   0  0  0  0  0  0  0  0  0  0  0  0
    4.2690   -5.3036    0.0000 H   0  0  0  0  0  0  0  0  0  0  0  0
  1 12  1  0  0  0  0
  1 16  1  0  0  0  0
  2 16  2  0  0  0  0
  3 18  1  0  0  0  0
  3 51  1  0  0  0  0
  4  5  1  0  0  0  0
  4  6  1  0  0  0  0
  4 11  1  0  0  0  0
  4 13  1  0  0  0  0
  5  7  1  0  0  0  0
  5 10  1  0  0  0  0
  5 26  1  0  0  0  0
  6  8  1  0  0  0  0
  6  9  1  0  0  0  0
  6 25  1  0  0  0  0
  7  8  1  0  0  0  0
  7 27  1  0  0  0  0
  7 28  1  0  0  0  0
  8 29  1  0  0  0  0
  8 30  1  0  0  0  0
  9 12  1  0  0  0  0
  9 33  1  0  0  0  0
  9 34  1  0  0  0  0
 10 12  1  0  0  0  0
 10 31  1  0  0  0  0
 10 32  1  0  0  0  0
 11 14  1  0  0  0  0
 11 15  1  0  0  0  0
 11 35  1  0  0  0  0
 12 36  1  0  0  0  0
 13 37  1  0  0  0  0
 13 38  1  0  0  0  0
 13 39  1  0  0  0  0
 14 40  1  0  0  0  0
 14 41  1  0  0  0  0
 14 42  1  0  0  0  0
 15 43  1  0  0  0  0
 15 44  1  0  0  0  0
 15 45  1  0  0  0  0
 16 17  1  0  0  0  0
 17 18  1  0  0  0  0
 17 19  1  0  0  0  0
 17 46  1  0  0  0  0
 18 47  1  0  0  0  0
 18 48  1  0  0  0  0
 19 20  2  0  0  0  0
 19 21  1  0  0  0  0
 20 22  1  0  0  0  0
 20 49  1  0  0  0  0
 21 23  2  0  0  0  0
 21 50  1  0  0  0  0
 22 24  2  0  0  0  0
 22 52  1  0  0  0  0
 23 24  1  0  0  0  0
 23 53  1  0  0  0  0
 24 54  1  0  0  0  0
M  CHG  1   4   1
M  END
> <PUBCHEM_COMPOUND_CID>
3746

> <PUBCHEM_COMPOUND_CANONICALIZED>
1

> <PUBCHEM_CACTVS_COMPLEXITY>
430

> <PUBCHEM_CACTVS_HBOND_ACCEPTOR>
3

> <PUBCHEM_CACTVS_HBOND_DONOR>
1

> <PUBCHEM_CACTVS_ROTATABLE_BOND>
6

> <PUBCHEM_CACTVS_SUBSKEYS>
AAADceB6MAAAAAAAAAAAAAAAAAAAAWAAAAA8QAAABgAAAAABAAAAHgAACAAADTzhmAYyCIMABgCIAiDSCAACAAAgAAAIiAEIAIgIMDaAlRCGYAAn4AGIiAeYyOCOgAAAAAAAAAAAAAAAAAAAAAAAAAAAAA==

> <PUBCHEM_IUPAC_OPENEYE_NAME>
(8-isopropyl-8-methyl-8-azoniabicyclo[3.2.1]octan-3-yl) 3-hydroxy-2-phenyl-propanoate

> <PUBCHEM_IUPAC_CAS_NAME>
3-hydroxy-2-phenylpropanoic acid (8-methyl-8-propan-2-yl-8-azoniabicyclo[3.2.1]octan-3-yl) ester

> <PUBCHEM_IUPAC_NAME>
(8-methyl-8-propan-2-yl-8-azoniabicyclo[3.2.1]octan-3-yl) 3-hydroxy-2-phenylpropanoate

> <PUBCHEM_IUPAC_SYSTEMATIC_NAME>
(8-methyl-8-propan-2-yl-8-azoniabicyclo[3.2.1]octan-3-yl) 3-oxidanyl-2-phenyl-propanoate

> <PUBCHEM_IUPAC_TRADITIONAL_NAME>
3-hydroxy-2-phenyl-propionic acid (8-isopropyl-8-methyl-8-azoniabicyclo[3.2.1]octan-3-yl) ester

> <PUBCHEM_IUPAC_INCHI>
InChI=1S/C20H30NO3/c1-14(2)21(3)16-9-10-17(21)12-18(11-16)24-20(23)19(13-22)15-7-5-4-6-8-15/h4-8,14,16-19,22H,9-13H2,1-3H3/q+1

> <PUBCHEM_IUPAC_INCHIKEY>
OEXHQOGQTVQTAT-UHFFFAOYSA-N

> <PUBCHEM_XLOGP3>
2.6

> <PUBCHEM_EXACT_MASS>
332.222569

> <PUBCHEM_MOLECULAR_FORMULA>
C20H30NO3+

> <PUBCHEM_MOLECULAR_WEIGHT>
332.4571

> <PUBCHEM_OPENEYE_CAN_SMILES>
CC(C)[N+]1(C2CCC1CC(C2)OC(=O)C(CO)C3=CC=CC=C3)C

> <PUBCHEM_OPENEYE_ISO_SMILES>
CC(C)[N+]1(C2CCC1CC(C2)OC(=O)C(CO)C3=CC=CC=C3)C

> <PUBCHEM_CACTVS_TPSA>
46.5

> <PUBCHEM_MONOISOTOPIC_WEIGHT>
332.222569

> <PUBCHEM_TOTAL_CHARGE>
1

> <PUBCHEM_HEAVY_ATOM_COUNT>
24

> <PUBCHEM_ATOM_DEF_STEREO_COUNT>
0

> <PUBCHEM_ATOM_UDEF_STEREO_COUNT>
3

> <PUBCHEM_BOND_DEF_STEREO_COUNT>
0

> <PUBCHEM_BOND_UDEF_STEREO_COUNT>
0

> <PUBCHEM_ISOTOPIC_ATOM_COUNT>
0

> <PUBCHEM_COMPONENT_COUNT>
1

> <PUBCHEM_CACTVS_TAUTO_COUNT>
1

> <PUBCHEM_COORDINATE_TYPE>
1
5
255

> <PUBCHEM_BONDANNOTATIONS>
17  46  3
19  20  8
19  21  8
20  22  8
21  23  8
22  24  8
23  24  8
5  26  3
6  25  3

$$$$
