3793
  -OEChem-12171208042D

 87 93  0     1  0  0  0  0  0999 V2000
    3.4403   -3.0010    0.0000 Cl  0  0  0  0  0  0  0  0  0  0  0  0
    5.1724   -6.0010    0.0000 Cl  0  0  0  0  0  0  0  0  0  0  0  0
    6.1724   -2.0010    0.0000 O   0  0  0  0  0  0  0  0  0  0  0  0
    4.8633   -1.0500    0.0000 O   0  0  0  0  0  0  0  0  0  0  0  0
    7.6403    0.2372    0.0000 O   0  0  0  0  0  0  0  0  0  0  0  0
   16.8721    5.0875    0.0000 O   0  0  0  0  0  0  0  0  0  0  0  0
   11.4446    1.4733    0.0000 N   0  0  0  0  0  0  0  0  0  0  0  0
   13.3467    2.0913    0.0000 N   0  0  0  0  0  0  0  0  0  0  0  0
    3.4782   -1.6409    0.0000 N   0  0  0  0  0  0  0  0  0  0  0  0
   17.1509    3.3274    0.0000 N   0  0  0  0  0  0  0  0  0  0  0  0
    3.5827   -0.6464    0.0000 N   0  0  0  0  0  0  0  0  0  0  0  0
   18.4599    4.2784    0.0000 N   0  0  0  0  0  0  0  0  0  0  0  0
    2.0000   -0.9828    0.0000 N   0  0  0  0  0  0  0  0  0  0  0  0
   18.7689    3.3274    0.0000 N   0  0  0  0  0  0  0  0  0  0  0  0
    5.1724   -2.0010    0.0000 C   0  0  3  0  0  0  0  0  0  0  0  0
    6.4814   -1.0500    0.0000 C   0  0  3  0  0  0  0  0  0  0  0  0
    5.6724   -0.4622    0.0000 C   0  0  0  0  0  0  0  0  0  0  0  0
   12.1877    0.8042    0.0000 C   0  0  0  0  0  0  0  0  0  0  0  0
   11.6525    2.4514    0.0000 C   0  0  0  0  0  0  0  0  0  0  0  0
   13.1388    1.1132    0.0000 C   0  0  0  0  0  0  0  0  0  0  0  0
   12.6035    2.7604    0.0000 C   0  0  0  0  0  0  0  0  0  0  0  0
    4.2213   -2.3100    0.0000 C   0  0  0  0  0  0  0  0  0  0  0  0
    5.1724   -3.0010    0.0000 C   0  0  0  0  0  0  0  0  0  0  0  0
    7.4324   -0.7409    0.0000 C   0  0  0  0  0  0  0  0  0  0  0  0
   10.4935    1.1643    0.0000 C   0  0  0  0  0  0  0  0  0  0  0  0
   14.2977    2.4003    0.0000 C   0  0  0  0  0  0  0  0  0  0  0  0
    4.3063   -3.5010    0.0000 C   0  0  0  0  0  0  0  0  0  0  0  0
    6.0384   -3.5010    0.0000 C   0  0  0  0  0  0  0  0  0  0  0  0
    9.7504    1.8334    0.0000 C   0  0  0  0  0  0  0  0  0  0  0  0
   10.2856    0.1861    0.0000 C   0  0  0  0  0  0  0  0  0  0  0  0
    8.5914    0.5462    0.0000 C   0  0  0  0  0  0  0  0  0  0  0  0
   15.0409    1.7312    0.0000 C   0  0  0  0  0  0  0  0  0  0  0  0
   14.5056    3.3785    0.0000 C   0  0  0  0  0  0  0  0  0  0  0  0
    8.7993    1.5244    0.0000 C   0  0  0  0  0  0  0  0  0  0  0  0
    9.3345   -0.1229    0.0000 C   0  0  0  0  0  0  0  0  0  0  0  0
   16.1998    3.0184    0.0000 C   0  0  0  0  0  0  0  0  0  0  0  0
   15.9919    2.0402    0.0000 C   0  0  0  0  0  0  0  0  0  0  0  0
   15.4567    3.6875    0.0000 C   0  0  0  0  0  0  0  0  0  0  0  0
    4.3063   -4.5010    0.0000 C   0  0  0  0  0  0  0  0  0  0  0  0
    6.0384   -4.5010    0.0000 C   0  0  0  0  0  0  0  0  0  0  0  0
    2.5000   -1.8488    0.0000 C   0  0  0  0  0  0  0  0  0  0  0  0
   19.0477    5.0875    0.0000 C   0  0  3  0  0  0  0  0  0  0  0  0
    5.1724   -5.0010    0.0000 C   0  0  0  0  0  0  0  0  0  0  0  0
   17.4599    4.2784    0.0000 C   0  0  0  0  0  0  0  0  0  0  0  0
   20.0422    4.9829    0.0000 C   0  0  0  0  0  0  0  0  0  0  0  0
    2.6691   -0.2396    0.0000 C   0  0  0  0  0  0  0  0  0  0  0  0
   17.9599    2.7396    0.0000 C   0  0  0  0  0  0  0  0  0  0  0  0
   18.6410    6.0010    0.0000 C   0  0  0  0  0  0  0  0  0  0  0  0
   20.6300    5.7920    0.0000 C   0  0  0  0  0  0  0  0  0  0  0  0
    6.9198   -1.4884    0.0000 H   0  0  0  0  0  0  0  0  0  0  0  0
    6.0872   -0.0014    0.0000 H   0  0  0  0  0  0  0  0  0  0  0  0
    5.2575   -0.0014    0.0000 H   0  0  0  0  0  0  0  0  0  0  0  0
   11.5662    3.0654    0.0000 H   0  0  0  0  0  0  0  0  0  0  0  0
   11.0328    2.4731    0.0000 H   0  0  0  0  0  0  0  0  0  0  0  0
   11.6991    0.4224    0.0000 H   0  0  0  0  0  0  0  0  0  0  0  0
   12.4788    0.2567    0.0000 H   0  0  0  0  0  0  0  0  0  0  0  0
   13.2250    0.4992    0.0000 H   0  0  0  0  0  0  0  0  0  0  0  0
   13.7584    1.0915    0.0000 H   0  0  0  0  0  0  0  0  0  0  0  0
   13.0921    3.1422    0.0000 H   0  0  0  0  0  0  0  0  0  0  0  0
   12.3125    3.3079    0.0000 H   0  0  0  0  0  0  0  0  0  0  0  0
    3.7327   -2.6917    0.0000 H   0  0  0  0  0  0  0  0  0  0  0  0
    4.5124   -2.8574    0.0000 H   0  0  0  0  0  0  0  0  0  0  0  0
    7.5187   -1.3549    0.0000 H   0  0  0  0  0  0  0  0  0  0  0  0
    8.0520   -0.7626    0.0000 H   0  0  0  0  0  0  0  0  0  0  0  0
    6.5753   -3.1910    0.0000 H   0  0  0  0  0  0  0  0  0  0  0  0
    9.8793    2.4398    0.0000 H   0  0  0  0  0  0  0  0  0  0  0  0
   10.7463   -0.2287    0.0000 H   0  0  0  0  0  0  0  0  0  0  0  0
   14.9120    1.1248    0.0000 H   0  0  0  0  0  0  0  0  0  0  0  0
   14.0449    3.7933    0.0000 H   0  0  0  0  0  0  0  0  0  0  0  0
    8.3386    1.9392    0.0000 H   0  0  0  0  0  0  0  0  0  0  0  0
    9.2056   -0.7293    0.0000 H   0  0  0  0  0  0  0  0  0  0  0  0
   16.4527    1.6254    0.0000 H   0  0  0  0  0  0  0  0  0  0  0  0
   15.5856    4.2940    0.0000 H   0  0  0  0  0  0  0  0  0  0  0  0
    3.7694   -4.8110    0.0000 H   0  0  0  0  0  0  0  0  0  0  0  0
    6.5753   -4.8110    0.0000 H   0  0  0  0  0  0  0  0  0  0  0  0
    2.2478   -2.4152    0.0000 H   0  0  0  0  0  0  0  0  0  0  0  0
   18.4311    5.1523    0.0000 H   0  0  0  0  0  0  0  0  0  0  0  0
   19.8713    4.3870    0.0000 H   0  0  0  0  0  0  0  0  0  0  0  0
   20.5995    4.7111    0.0000 H   0  0  0  0  0  0  0  0  0  0  0  0
    2.5402    0.3668    0.0000 H   0  0  0  0  0  0  0  0  0  0  0  0
   17.9599    2.1196    0.0000 H   0  0  0  0  0  0  0  0  0  0  0  0
   19.2074    6.2532    0.0000 H   0  0  0  0  0  0  0  0  0  0  0  0
   18.3888    6.5674    0.0000 H   0  0  0  0  0  0  0  0  0  0  0  0
   18.0746    5.7488    0.0000 H   0  0  0  0  0  0  0  0  0  0  0  0
   21.1316    5.4275    0.0000 H   0  0  0  0  0  0  0  0  0  0  0  0
   20.9944    6.2935    0.0000 H   0  0  0  0  0  0  0  0  0  0  0  0
   20.1284    6.1564    0.0000 H   0  0  0  0  0  0  0  0  0  0  0  0
  1 27  1  0  0  0  0
  2 43  1  0  0  0  0
  3 15  1  0  0  0  0
  3 16  1  0  0  0  0
  4 15  1  0  0  0  0
  4 17  1  0  0  0  0
  5 24  1  0  0  0  0
  5 31  1  0  0  0  0
  6 44  2  0  0  0  0
  7 18  1  0  0  0  0
  7 19  1  0  0  0  0
  7 25  1  0  0  0  0
  8 20  1  0  0  0  0
  8 21  1  0  0  0  0
  8 26  1  0  0  0  0
  9 11  1  0  0  0  0
  9 22  1  0  0  0  0
  9 41  1  0  0  0  0
 10 36  1  0  0  0  0
 10 44  1  0  0  0  0
 10 47  1  0  0  0  0
 11 46  2  0  0  0  0
 12 14  1  0  0  0  0
 12 42  1  0  0  0  0
 12 44  1  0  0  0  0
 13 41  2  0  0  0  0
 13 46  1  0  0  0  0
 14 47  2  0  0  0  0
 15 22  1  0  0  0  0
 15 23  1  0  0  0  0
 16 17  1  0  0  0  0
 16 24  1  0  0  0  0
 16 50  1  0  0  0  0
 17 51  1  0  0  0  0
 17 52  1  0  0  0  0
 18 20  1  0  0  0  0
 18 55  1  0  0  0  0
 18 56  1  0  0  0  0
 19 21  1  0  0  0  0
 19 53  1  0  0  0  0
 19 54  1  0  0  0  0
 20 57  1  0  0  0  0
 20 58  1  0  0  0  0
 21 59  1  0  0  0  0
 21 60  1  0  0  0  0
 22 61  1  0  0  0  0
 22 62  1  0  0  0  0
 23 27  2  0  0  0  0
 23 28  1  0  0  0  0
 24 63  1  0  0  0  0
 24 64  1  0  0  0  0
 25 29  2  0  0  0  0
 25 30  1  0  0  0  0
 26 32  2  0  0  0  0
 26 33  1  0  0  0  0
 27 39  1  0  0  0  0
 28 40  2  0  0  0  0
 28 65  1  0  0  0  0
 29 34  1  0  0  0  0
 29 66  1  0  0  0  0
 30 35  2  0  0  0  0
 30 67  1  0  0  0  0
 31 34  2  0  0  0  0
 31 35  1  0  0  0  0
 32 37  1  0  0  0  0
 32 68  1  0  0  0  0
 33 38  2  0  0  0  0
 33 69  1  0  0  0  0
 34 70  1  0  0  0  0
 35 71  1  0  0  0  0
 36 37  2  0  0  0  0
 36 38  1  0  0  0  0
 37 72  1  0  0  0  0
 38 73  1  0  0  0  0
 39 43  2  0  0  0  0
 39 74  1  0  0  0  0
 40 43  1  0  0  0  0
 40 75  1  0  0  0  0
 41 76  1  0  0  0  0
 42 45  1  0  0  0  0
 42 48  1  0  0  0  0
 42 77  1  0  0  0  0
 45 49  1  0  0  0  0
 45 78  1  0  0  0  0
 45 79  1  0  0  0  0
 46 80  1  0  0  0  0
 47 81  1  0  0  0  0
 48 82  1  0  0  0  0
 48 83  1  0  0  0  0
 48 84  1  0  0  0  0
 49 85  1  0  0  0  0
 49 86  1  0  0  0  0
 49 87  1  0  0  0  0
M  END
> <PUBCHEM_COMPOUND_CID>
3793

> <PUBCHEM_COMPOUND_CANONICALIZED>
1

> <PUBCHEM_CACTVS_COMPLEXITY>
1120

> <PUBCHEM_CACTVS_HBOND_ACCEPTOR>
9

> <PUBCHEM_CACTVS_HBOND_DONOR>
0

> <PUBCHEM_CACTVS_ROTATABLE_BOND>
11

> <PUBCHEM_CACTVS_SUBSKEYS>
AAADcfB/+AAGAAAAAAAAAAAAAAAAAWJEAAA8YMEAAAAAAAAB1AAAHgIIAAAADD7hmCY33ocIFACqAiRDdACSCAsxp4AfyAAOboifbiLFu5u3OCjtxhPe6CewwKAOBECAAACBAAAIgQAAAQIAAAAAAAAAAA==

> <PUBCHEM_IUPAC_OPENEYE_NAME>
4-[4-[4-[4-[[2-(2,4-dichlorophenyl)-2-(1,2,4-triazol-1-ylmethyl)-1,3-dioxolan-4-yl]methoxy]phenyl]piperazin-1-yl]phenyl]-2-sec-butyl-1,2,4-triazol-3-one

> <PUBCHEM_IUPAC_CAS_NAME>
2-butan-2-yl-4-[4-[4-[4-[[2-(2,4-dichlorophenyl)-2-(1,2,4-triazol-1-ylmethyl)-1,3-dioxolan-4-yl]methoxy]phenyl]-1-piperazinyl]phenyl]-1,2,4-triazol-3-one

> <PUBCHEM_IUPAC_NAME>
2-butan-2-yl-4-[4-[4-[4-[[2-(2,4-dichlorophenyl)-2-(1,2,4-triazol-1-ylmethyl)-1,3-dioxolan-4-yl]methoxy]phenyl]piperazin-1-yl]phenyl]-1,2,4-triazol-3-one

> <PUBCHEM_IUPAC_SYSTEMATIC_NAME>
2-butan-2-yl-4-[4-[4-[4-[[2-(2,4-dichlorophenyl)-2-(1,2,4-triazol-1-ylmethyl)-1,3-dioxolan-4-yl]methoxy]phenyl]piperazin-1-yl]phenyl]-1,2,4-triazol-3-one

> <PUBCHEM_IUPAC_TRADITIONAL_NAME>
4-[4-[4-[4-[[2-(2,4-dichlorophenyl)-2-(1,2,4-triazol-1-ylmethyl)-1,3-dioxolan-4-yl]methoxy]phenyl]piperazino]phenyl]-2-sec-butyl-1,2,4-triazol-3-one

> <PUBCHEM_IUPAC_INCHI>
InChI=1S/C35H38Cl2N8O4/c1-3-25(2)45-34(46)44(24-40-45)29-7-5-27(6-8-29)41-14-16-42(17-15-41)28-9-11-30(12-10-28)47-19-31-20-48-35(49-31,21-43-23-38-22-39-43)32-13-4-26(36)18-33(32)37/h4-13,18,22-25,31H,3,14-17,19-21H2,1-2H3

> <PUBCHEM_IUPAC_INCHIKEY>
VHVPQPYKVGDNFY-UHFFFAOYSA-N

> <PUBCHEM_XLOGP3>
5.7

> <PUBCHEM_EXACT_MASS>
704.239307

> <PUBCHEM_MOLECULAR_FORMULA>
C35H38Cl2N8O4

> <PUBCHEM_MOLECULAR_WEIGHT>
705.63342

> <PUBCHEM_OPENEYE_CAN_SMILES>
CCC(C)N1C(=O)N(C=N1)C2=CC=C(C=C2)N3CCN(CC3)C4=CC=C(C=C4)OCC5COC(O5)(CN6C=NC=N6)C7=C(C=C(C=C7)Cl)Cl

> <PUBCHEM_OPENEYE_ISO_SMILES>
CCC(C)N1C(=O)N(C=N1)C2=CC=C(C=C2)N3CCN(CC3)C4=CC=C(C=C4)OCC5COC(O5)(CN6C=NC=N6)C7=C(C=C(C=C7)Cl)Cl

> <PUBCHEM_CACTVS_TPSA>
101

> <PUBCHEM_MONOISOTOPIC_WEIGHT>
704.239307

> <PUBCHEM_TOTAL_CHARGE>
0

> <PUBCHEM_HEAVY_ATOM_COUNT>
49

> <PUBCHEM_ATOM_DEF_STEREO_COUNT>
0

> <PUBCHEM_ATOM_UDEF_STEREO_COUNT>
3

> <PUBCHEM_BOND_DEF_STEREO_COUNT>
0

> <PUBCHEM_BOND_UDEF_STEREO_COUNT>
0

> <PUBCHEM_ISOTOPIC_ATOM_COUNT>
0

> <PUBCHEM_COMPONENT_COUNT>
1

> <PUBCHEM_CACTVS_TAUTO_COUNT>
1

> <PUBCHEM_COORDINATE_TYPE>
1
5
255

> <PUBCHEM_BONDANNOTATIONS>
10  44  8
10  47  8
11  46  8
12  14  8
12  44  8
13  41  8
13  46  8
14  47  8
15  22  3
16  24  3
23  27  8
23  28  8
25  29  8
25  30  8
26  32  8
26  33  8
27  39  8
28  40  8
29  34  8
30  35  8
31  34  8
31  35  8
32  37  8
33  38  8
36  37  8
36  38  8
39  43  8
40  43  8
42  48  3
9  11  8
9  41  8

$$$$
