3911
  -OEChem-12171208052D

171176  0     1  0  0  0  0  0999 V2000
   14.7199   -4.0963    0.0000 O   0  0  0  0  0  0  0  0  0  0  0  0
   16.0410   -4.4281    0.0000 O   0  0  0  0  0  0  0  0  0  0  0  0
   11.1328   -4.4606    0.0000 O   0  0  0  0  0  0  0  0  0  0  0  0
   10.6423   -1.2372    0.0000 O   0  0  0  0  0  0  0  0  0  0  0  0
   12.5528    1.8205    0.0000 O   0  0  0  0  0  0  0  0  0  0  0  0
    3.9639    6.2058    0.0000 O   0  0  0  0  0  0  0  0  0  0  0  0
    9.5708    3.8472    0.0000 O   0  0  0  0  0  0  0  0  0  0  0  0
    2.8484   10.3746    0.0000 O   0  0  0  0  0  0  0  0  0  0  0  0
    4.6318    5.4615    0.0000 O   0  0  0  0  0  0  0  0  0  0  0  0
    6.3246    2.2780    0.0000 O   0  0  0  0  0  0  0  0  0  0  0  0
    8.6388    0.9957    0.0000 O   0  0  0  0  0  0  0  0  0  0  0  0
   15.1312    4.1340    0.0000 O   0  0  0  0  0  0  0  0  0  0  0  0
   14.4759   -5.8111    0.0000 N   0  0  0  0  0  0  0  0  0  0  0  0
   12.7399   -3.8145    0.0000 N   0  0  0  0  0  0  0  0  0  0  0  0
   17.1520   -5.7568    0.0000 N   0  0  0  0  0  0  0  0  0  0  0  0
   11.9939   -1.9589    0.0000 N   0  0  0  0  0  0  0  0  0  0  0  0
   11.2637    0.6638    0.0000 N   0  0  0  0  0  0  0  0  0  0  0  0
   12.6248   -8.1719    0.0000 N   0  0  0  0  0  0  0  0  0  0  0  0
    9.9280    2.1524    0.0000 N   0  0  0  0  0  0  0  0  0  0  0  0
    3.8163    8.8784    0.0000 N   0  0  0  0  0  0  0  0  0  0  0  0
    5.2531    7.3625    0.0000 N   0  0  0  0  0  0  0  0  0  0  0  0
    6.2781    4.9234    0.0000 N   0  0  0  0  0  0  0  0  0  0  0  0
    7.6138    3.4348    0.0000 N   0  0  0  0  0  0  0  0  0  0  0  0
   12.3808   -9.8867    0.0000 N   0  0  0  0  0  0  0  0  0  0  0  0
   11.0178   -8.8180    0.0000 N   0  0  0  0  0  0  0  0  0  0  0  0
    4.6783    1.2067    0.0000 N   0  0  0  0  0  0  0  0  0  0  0  0
    8.1617    8.0823    0.0000 N   0  0  0  0  0  0  0  0  0  0  0  0
    7.2129    9.3930    0.0000 N   0  0  0  0  0  0  0  0  0  0  0  0
   15.4458   -6.0547    0.0000 C   0  0  3  0  0  0  0  0  0  0  0  0
   15.5138   -7.0524    0.0000 C   0  0  0  0  0  0  0  0  0  0  0  0
   14.5860   -7.4254    0.0000 C   0  0  0  0  0  0  0  0  0  0  0  0
   13.9445   -6.6582    0.0000 C   0  0  0  0  0  0  0  0  0  0  0  0
   14.1029   -4.8832    0.0000 C   0  0  0  0  0  0  0  0  0  0  0  0
   13.1129   -4.7424    0.0000 C   0  0  3  0  0  0  0  0  0  0  0  0
   16.2129   -5.4132    0.0000 C   0  0  0  0  0  0  0  0  0  0  0  0
   12.4958   -5.5293    0.0000 C   0  0  0  0  0  0  0  0  0  0  0  0
   12.8688   -6.4571    0.0000 C   0  0  0  0  0  0  0  0  0  0  0  0
   11.3768   -2.7458    0.0000 C   0  0  3  0  0  0  0  0  0  0  0  0
   11.7498   -3.6736    0.0000 C   0  0  0  0  0  0  0  0  0  0  0  0
   10.3869   -2.6050    0.0000 C   0  0  0  0  0  0  0  0  0  0  0  0
    9.7698   -3.3919    0.0000 C   0  0  0  0  0  0  0  0  0  0  0  0
   17.9192   -5.1154    0.0000 C   0  0  0  0  0  0  0  0  0  0  0  0
   12.2518   -7.2441    0.0000 C   0  0  0  0  0  0  0  0  0  0  0  0
   11.9315   -0.0805    0.0000 C   0  0  3  0  0  0  0  0  0  0  0  0
   11.6208   -1.0310    0.0000 C   0  0  0  0  0  0  0  0  0  0  0  0
   12.7805    0.4479    0.0000 C   0  0  0  0  0  0  0  0  0  0  0  0
    8.7798   -3.2510    0.0000 C   0  0  0  0  0  0  0  0  0  0  0  0
   10.1429   -4.3197    0.0000 C   0  0  0  0  0  0  0  0  0  0  0  0
   13.6626   -0.0231    0.0000 C   0  0  0  0  0  0  0  0  0  0  0  0
   18.8583   -5.4590    0.0000 C   0  0  0  0  0  0  0  0  0  0  0  0
   14.5116    0.5054    0.0000 C   0  0  0  0  0  0  0  0  0  0  0  0
   13.6958   -1.0225    0.0000 C   0  0  0  0  0  0  0  0  0  0  0  0
   10.9065    2.3586    0.0000 C   0  0  3  0  0  0  0  0  0  0  0  0
   11.5743    1.6143    0.0000 C   0  0  0  0  0  0  0  0  0  0  0  0
   11.2171    3.3091    0.0000 C   0  0  0  0  0  0  0  0  0  0  0  0
    3.6067    7.9006    0.0000 C   0  0  3  0  0  0  0  0  0  0  0  0
   12.0078   -8.9588    0.0000 C   0  0  0  0  0  0  0  0  0  0  0  0
    2.6120    7.7978    0.0000 C   0  0  0  0  0  0  0  0  0  0  0  0
    5.9674    3.9729    0.0000 C   0  0  3  0  0  0  0  0  0  0  0  0
    5.9209    6.6182    0.0000 C   0  0  3  0  0  0  0  0  0  0  0  0
    2.2069    8.7120    0.0000 C   0  0  0  0  0  0  0  0  0  0  0  0
    8.2816    2.6905    0.0000 C   0  0  3  0  0  0  0  0  0  0  0  0
    4.9889    3.7666    0.0000 C   0  0  0  0  0  0  0  0  0  0  0  0
    4.2746    7.1563    0.0000 C   0  0  0  0  0  0  0  0  0  0  0  0
    9.2601    2.8967    0.0000 C   0  0  0  0  0  0  0  0  0  0  0  0
   12.1957    3.5154    0.0000 C   0  0  0  0  0  0  0  0  0  0  0  0
    2.9512    9.3799    0.0000 C   0  0  0  0  0  0  0  0  0  0  0  0
    6.8994    6.8244    0.0000 C   0  0  0  0  0  0  0  0  0  0  0  0
    5.6103    5.6677    0.0000 C   0  0  0  0  0  0  0  0  0  0  0  0
    6.6353    3.2286    0.0000 C   0  0  0  0  0  0  0  0  0  0  0  0
    4.6783    2.8161    0.0000 C   0  0  0  0  0  0  0  0  0  0  0  0
    3.7320    2.5114    0.0000 C   0  0  0  0  0  0  0  0  0  0  0  0
    7.9710    1.7400    0.0000 C   0  0  0  0  0  0  0  0  0  0  0  0
    7.2101    7.7750    0.0000 C   0  0  0  0  0  0  0  0  0  0  0  0
    5.2619    2.0114    0.0000 C   0  0  0  0  0  0  0  0  0  0  0  0
    3.7320    1.5114    0.0000 C   0  0  0  0  0  0  0  0  0  0  0  0
   12.5063    4.4659    0.0000 C   0  0  0  0  0  0  0  0  0  0  0  0
   12.8635    2.7711    0.0000 C   0  0  0  0  0  0  0  0  0  0  0  0
    2.8660    3.0114    0.0000 C   0  0  0  0  0  0  0  0  0  0  0  0
    2.8660    1.0114    0.0000 C   0  0  0  0  0  0  0  0  0  0  0  0
   13.4848    4.6721    0.0000 C   0  0  0  0  0  0  0  0  0  0  0  0
   13.8420    2.9773    0.0000 C   0  0  0  0  0  0  0  0  0  0  0  0
    6.6237    8.5850    0.0000 C   0  0  0  0  0  0  0  0  0  0  0  0
   14.1527    3.9278    0.0000 C   0  0  0  0  0  0  0  0  0  0  0  0
    2.0000    2.5114    0.0000 C   0  0  0  0  0  0  0  0  0  0  0  0
    2.0000    1.5114    0.0000 C   0  0  0  0  0  0  0  0  0  0  0  0
    8.1634    9.0823    0.0000 C   0  0  0  0  0  0  0  0  0  0  0  0
   15.3073   -5.4503    0.0000 H   0  0  0  0  0  0  0  0  0  0  0  0
   15.6837   -7.6486    0.0000 H   0  0  0  0  0  0  0  0  0  0  0  0
   16.1246   -6.9457    0.0000 H   0  0  0  0  0  0  0  0  0  0  0  0
   14.0714   -7.7712    0.0000 H   0  0  0  0  0  0  0  0  0  0  0  0
   14.8761   -7.9733    0.0000 H   0  0  0  0  0  0  0  0  0  0  0  0
   13.4566   -6.2756    0.0000 H   0  0  0  0  0  0  0  0  0  0  0  0
   13.5130   -7.1034    0.0000 H   0  0  0  0  0  0  0  0  0  0  0  0
   12.4990   -4.6550    0.0000 H   0  0  0  0  0  0  0  0  0  0  0  0
   12.0818   -5.0678    0.0000 H   0  0  0  0  0  0  0  0  0  0  0  0
   11.9695   -5.8569    0.0000 H   0  0  0  0  0  0  0  0  0  0  0  0
   13.1224   -3.3266    0.0000 H   0  0  0  0  0  0  0  0  0  0  0  0
   13.2829   -6.9186    0.0000 H   0  0  0  0  0  0  0  0  0  0  0  0
   13.3952   -6.1295    0.0000 H   0  0  0  0  0  0  0  0  0  0  0  0
   11.1456   -2.1706    0.0000 H   0  0  0  0  0  0  0  0  0  0  0  0
   17.2586   -6.3676    0.0000 H   0  0  0  0  0  0  0  0  0  0  0  0
   10.5795   -2.0156    0.0000 H   0  0  0  0  0  0  0  0  0  0  0  0
    9.8399   -2.3129    0.0000 H   0  0  0  0  0  0  0  0  0  0  0  0
    9.3873   -3.8798    0.0000 H   0  0  0  0  0  0  0  0  0  0  0  0
   18.2301   -4.5790    0.0000 H   0  0  0  0  0  0  0  0  0  0  0  0
   17.4449   -4.7160    0.0000 H   0  0  0  0  0  0  0  0  0  0  0  0
   11.8377   -6.7826    0.0000 H   0  0  0  0  0  0  0  0  0  0  0  0
   11.7255   -7.5717    0.0000 H   0  0  0  0  0  0  0  0  0  0  0  0
   12.6077   -2.0462    0.0000 H   0  0  0  0  0  0  0  0  0  0  0  0
   11.3248   -0.2084    0.0000 H   0  0  0  0  0  0  0  0  0  0  0  0
   13.1630    0.9359    0.0000 H   0  0  0  0  0  0  0  0  0  0  0  0
   12.3664    0.9094    0.0000 H   0  0  0  0  0  0  0  0  0  0  0  0
    8.8671   -2.6372    0.0000 H   0  0  0  0  0  0  0  0  0  0  0  0
    8.1660   -3.1636    0.0000 H   0  0  0  0  0  0  0  0  0  0  0  0
    8.6924   -3.8648    0.0000 H   0  0  0  0  0  0  0  0  0  0  0  0
    9.5676   -4.5510    0.0000 H   0  0  0  0  0  0  0  0  0  0  0  0
   10.3741   -4.8950    0.0000 H   0  0  0  0  0  0  0  0  0  0  0  0
   10.7181   -4.0884    0.0000 H   0  0  0  0  0  0  0  0  0  0  0  0
   14.2095   -0.3151    0.0000 H   0  0  0  0  0  0  0  0  0  0  0  0
   18.6452   -6.0413    0.0000 H   0  0  0  0  0  0  0  0  0  0  0  0
   19.4405   -5.6721    0.0000 H   0  0  0  0  0  0  0  0  0  0  0  0
   19.0713   -4.8768    0.0000 H   0  0  0  0  0  0  0  0  0  0  0  0
   10.6570    0.5359    0.0000 H   0  0  0  0  0  0  0  0  0  0  0  0
   13.0761   -1.0431    0.0000 H   0  0  0  0  0  0  0  0  0  0  0  0
   13.7163   -1.6422    0.0000 H   0  0  0  0  0  0  0  0  0  0  0  0
   14.3154   -1.0019    0.0000 H   0  0  0  0  0  0  0  0  0  0  0  0
   14.8392   -0.0210    0.0000 H   0  0  0  0  0  0  0  0  0  0  0  0
   15.0379    0.8330    0.0000 H   0  0  0  0  0  0  0  0  0  0  0  0
   14.1839    1.0318    0.0000 H   0  0  0  0  0  0  0  0  0  0  0  0
   10.7139    1.7693    0.0000 H   0  0  0  0  0  0  0  0  0  0  0  0
   11.1966    3.9288    0.0000 H   0  0  0  0  0  0  0  0  0  0  0  0
   10.6033    3.3965    0.0000 H   0  0  0  0  0  0  0  0  0  0  0  0
    4.2059    8.0600    0.0000 H   0  0  0  0  0  0  0  0  0  0  0  0
    2.0220    7.6072    0.0000 H   0  0  0  0  0  0  0  0  0  0  0  0
    2.7399    7.1911    0.0000 H   0  0  0  0  0  0  0  0  0  0  0  0
    9.7354    1.5631    0.0000 H   0  0  0  0  0  0  0  0  0  0  0  0
    5.5534    4.4343    0.0000 H   0  0  0  0  0  0  0  0  0  0  0  0
    6.1135    7.2075    0.0000 H   0  0  0  0  0  0  0  0  0  0  0  0
    1.8433    9.2142    0.0000 H   0  0  0  0  0  0  0  0  0  0  0  0
    1.6694    8.4030    0.0000 H   0  0  0  0  0  0  0  0  0  0  0  0
    4.9684    4.3863    0.0000 H   0  0  0  0  0  0  0  0  0  0  0  0
    4.3751    3.8540    0.0000 H   0  0  0  0  0  0  0  0  0  0  0  0
    8.4742    3.2798    0.0000 H   0  0  0  0  0  0  0  0  0  0  0  0
    4.3832    9.1296    0.0000 H   0  0  0  0  0  0  0  0  0  0  0  0
    5.4457    7.9518    0.0000 H   0  0  0  0  0  0  0  0  0  0  0  0
    6.9200    6.2048    0.0000 H   0  0  0  0  0  0  0  0  0  0  0  0
    7.5132    6.7371    0.0000 H   0  0  0  0  0  0  0  0  0  0  0  0
    6.8848    5.0512    0.0000 H   0  0  0  0  0  0  0  0  0  0  0  0
    7.8064    4.0241    0.0000 H   0  0  0  0  0  0  0  0  0  0  0  0
    7.4240    2.0320    0.0000 H   0  0  0  0  0  0  0  0  0  0  0  0
    7.5884    1.2521    0.0000 H   0  0  0  0  0  0  0  0  0  0  0  0
   10.6352   -9.3059    0.0000 H   0  0  0  0  0  0  0  0  0  0  0  0
   10.7865   -8.2427    0.0000 H   0  0  0  0  0  0  0  0  0  0  0  0
   11.9982  -10.3746    0.0000 H   0  0  0  0  0  0  0  0  0  0  0  0
   12.9946   -9.9740    0.0000 H   0  0  0  0  0  0  0  0  0  0  0  0
    5.8819    2.0114    0.0000 H   0  0  0  0  0  0  0  0  0  0  0  0
   12.0923    4.9273    0.0000 H   0  0  0  0  0  0  0  0  0  0  0  0
   12.6709    2.1817    0.0000 H   0  0  0  0  0  0  0  0  0  0  0  0
    4.8709    0.6173    0.0000 H   0  0  0  0  0  0  0  0  0  0  0  0
    2.8660    3.6314    0.0000 H   0  0  0  0  0  0  0  0  0  0  0  0
    2.8660    0.3914    0.0000 H   0  0  0  0  0  0  0  0  0  0  0  0
   13.6774    5.2614    0.0000 H   0  0  0  0  0  0  0  0  0  0  0  0
   14.2561    2.5158    0.0000 H   0  0  0  0  0  0  0  0  0  0  0  0
    8.6626    7.7170    0.0000 H   0  0  0  0  0  0  0  0  0  0  0  0
    6.0037    8.5860    0.0000 H   0  0  0  0  0  0  0  0  0  0  0  0
    1.4631    2.8214    0.0000 H   0  0  0  0  0  0  0  0  0  0  0  0
    1.4631    1.2014    0.0000 H   0  0  0  0  0  0  0  0  0  0  0  0
    8.4462    0.4063    0.0000 H   0  0  0  0  0  0  0  0  0  0  0  0
    8.6656    9.4459    0.0000 H   0  0  0  0  0  0  0  0  0  0  0  0
   15.5452    3.6726    0.0000 H   0  0  0  0  0  0  0  0  0  0  0  0
  1 33  2  0  0  0  0
  2 35  2  0  0  0  0
  3 39  2  0  0  0  0
  4 45  2  0  0  0  0
  5 54  2  0  0  0  0
  6 64  2  0  0  0  0
  7 65  2  0  0  0  0
  8 67  2  0  0  0  0
  9 69  2  0  0  0  0
 10 70  2  0  0  0  0
 11 73  1  0  0  0  0
 11169  1  0  0  0  0
 12 84  1  0  0  0  0
 12171  1  0  0  0  0
 13 29  1  0  0  0  0
 13 32  1  0  0  0  0
 13 33  1  0  0  0  0
 14 34  1  0  0  0  0
 14 39  1  0  0  0  0
 14 98  1  0  0  0  0
 15 35  1  0  0  0  0
 15 42  1  0  0  0  0
 15102  1  0  0  0  0
 16 38  1  0  0  0  0
 16 45  1  0  0  0  0
 16110  1  0  0  0  0
 17 44  1  0  0  0  0
 17 54  1  0  0  0  0
 17124  1  0  0  0  0
 18 43  1  0  0  0  0
 18 57  2  0  0  0  0
 19 53  1  0  0  0  0
 19 65  1  0  0  0  0
 19137  1  0  0  0  0
 20 56  1  0  0  0  0
 20 67  1  0  0  0  0
 20145  1  0  0  0  0
 21 60  1  0  0  0  0
 21 64  1  0  0  0  0
 21146  1  0  0  0  0
 22 59  1  0  0  0  0
 22 69  1  0  0  0  0
 22149  1  0  0  0  0
 23 62  1  0  0  0  0
 23 70  1  0  0  0  0
 23150  1  0  0  0  0
 24 57  1  0  0  0  0
 24155  1  0  0  0  0
 24156  1  0  0  0  0
 25 57  1  0  0  0  0
 25153  1  0  0  0  0
 25154  1  0  0  0  0
 26 75  1  0  0  0  0
 26 76  1  0  0  0  0
 26160  1  0  0  0  0
 27 74  1  0  0  0  0
 27 87  1  0  0  0  0
 27165  1  0  0  0  0
 28 83  1  0  0  0  0
 28 87  2  0  0  0  0
 29 30  1  0  0  0  0
 29 35  1  0  0  0  0
 29 88  1  0  0  0  0
 30 31  1  0  0  0  0
 30 89  1  0  0  0  0
 30 90  1  0  0  0  0
 31 32  1  0  0  0  0
 31 91  1  0  0  0  0
 31 92  1  0  0  0  0
 32 93  1  0  0  0  0
 32 94  1  0  0  0  0
 33 34  1  0  0  0  0
 34 36  1  0  0  0  0
 34 95  1  0  0  0  0
 36 37  1  0  0  0  0
 36 96  1  0  0  0  0
 36 97  1  0  0  0  0
 37 43  1  0  0  0  0
 37 99  1  0  0  0  0
 37100  1  0  0  0  0
 38 39  1  0  0  0  0
 38 40  1  0  0  0  0
 38101  1  0  0  0  0
 40 41  1  0  0  0  0
 40103  1  0  0  0  0
 40104  1  0  0  0  0
 41 47  1  0  0  0  0
 41 48  1  0  0  0  0
 41105  1  0  0  0  0
 42 50  1  0  0  0  0
 42106  1  0  0  0  0
 42107  1  0  0  0  0
 43108  1  0  0  0  0
 43109  1  0  0  0  0
 44 45  1  0  0  0  0
 44 46  1  0  0  0  0
 44111  1  0  0  0  0
 46 49  1  0  0  0  0
 46112  1  0  0  0  0
 46113  1  0  0  0  0
 47114  1  0  0  0  0
 47115  1  0  0  0  0
 47116  1  0  0  0  0
 48117  1  0  0  0  0
 48118  1  0  0  0  0
 48119  1  0  0  0  0
 49 51  1  0  0  0  0
 49 52  1  0  0  0  0
 49120  1  0  0  0  0
 50121  1  0  0  0  0
 50122  1  0  0  0  0
 50123  1  0  0  0  0
 51128  1  0  0  0  0
 51129  1  0  0  0  0
 51130  1  0  0  0  0
 52125  1  0  0  0  0
 52126  1  0  0  0  0
 52127  1  0  0  0  0
 53 54  1  0  0  0  0
 53 55  1  0  0  0  0
 53131  1  0  0  0  0
 55 66  1  0  0  0  0
 55132  1  0  0  0  0
 55133  1  0  0  0  0
 56 58  1  0  0  0  0
 56 64  1  0  0  0  0
 56134  1  0  0  0  0
 58 61  1  0  0  0  0
 58135  1  0  0  0  0
 58136  1  0  0  0  0
 59 63  1  0  0  0  0
 59 70  1  0  0  0  0
 59138  1  0  0  0  0
 60 68  1  0  0  0  0
 60 69  1  0  0  0  0
 60139  1  0  0  0  0
 61 67  1  0  0  0  0
 61140  1  0  0  0  0
 61141  1  0  0  0  0
 62 65  1  0  0  0  0
 62 73  1  0  0  0  0
 62144  1  0  0  0  0
 63 71  1  0  0  0  0
 63142  1  0  0  0  0
 63143  1  0  0  0  0
 66 77  2  0  0  0  0
 66 78  1  0  0  0  0
 68 74  1  0  0  0  0
 68147  1  0  0  0  0
 68148  1  0  0  0  0
 71 72  1  0  0  0  0
 71 75  2  0  0  0  0
 72 76  1  0  0  0  0
 72 79  2  0  0  0  0
 73151  1  0  0  0  0
 73152  1  0  0  0  0
 74 83  2  0  0  0  0
 75157  1  0  0  0  0
 76 80  2  0  0  0  0
 77 81  1  0  0  0  0
 77158  1  0  0  0  0
 78 82  2  0  0  0  0
 78159  1  0  0  0  0
 79 85  1  0  0  0  0
 79161  1  0  0  0  0
 80 86  1  0  0  0  0
 80162  1  0  0  0  0
 81 84  2  0  0  0  0
 81163  1  0  0  0  0
 82 84  1  0  0  0  0
 82164  1  0  0  0  0
 83166  1  0  0  0  0
 85 86  2  0  0  0  0
 85167  1  0  0  0  0
 86168  1  0  0  0  0
 87170  1  0  0  0  0
M  END
> <PUBCHEM_COMPOUND_CID>
3911

> <PUBCHEM_COMPOUND_CANONICALIZED>
1

> <PUBCHEM_CACTVS_COMPLEXITY>
2390

> <PUBCHEM_CACTVS_HBOND_ACCEPTOR>
14

> <PUBCHEM_CACTVS_HBOND_DONOR>
15

> <PUBCHEM_CACTVS_ROTATABLE_BOND>
32

> <PUBCHEM_CACTVS_SUBSKEYS>
AAADcfB//AAAAAAAAAAAAAAAAAAAAWLFiwAwYAAAAAAAAFgB/AAAHgAQCAAADSzhngY/1vfJkgCoAzV3dACCgC2xMqAJ2aG+fJiKfvbC2bOUcAhu9hPY2Cecy+COoAAAAAACAABAAAAAAAQAAAAAAAAAAA==

> <PUBCHEM_IUPAC_OPENEYE_NAME>
N-[2-[[2-[[2-[[2-[[1-[[1-[[1-[2-(ethylcarbamoyl)pyrrolidine-1-carbonyl]-4-guanidino-butyl]carbamoyl]-3-methyl-butyl]carbamoyl]-3-methyl-butyl]amino]-1-[(4-hydroxyphenyl)methyl]-2-oxo-ethyl]amino]-1-(hydroxymethyl)-2-oxo-ethyl]amino]-1-(1H-indol-3-ylmethyl)-2-oxo-ethyl]amino]-1-(1H-imidazol-5-ylmethyl)-2-oxo-ethyl]-5-oxo-pyrrolidine-2-carboxamide

> <PUBCHEM_IUPAC_CAS_NAME>
N-[1-[[1-[[1-[[1-[[1-[[1-[[5-(diaminomethylideneamino)-1-[2-(ethylcarbamoyl)-1-pyrrolidinyl]-1-oxopentan-2-yl]amino]-4-methyl-1-oxopentan-2-yl]amino]-4-methyl-1-oxopentan-2-yl]amino]-3-(4-hydroxyphenyl)-1-oxopropan-2-yl]amino]-3-hydroxy-1-oxopropan-2-yl]amino]-3-(1H-indol-3-yl)-1-oxopropan-2-yl]amino]-3-(1H-imidazol-5-yl)-1-oxopropan-2-yl]-5-oxo-2-pyrrolidinecarboxamide

> <PUBCHEM_IUPAC_NAME>
N-[1-[[1-[[1-[[1-[[1-[[1-[[5-(diaminomethylideneamino)-1-[2-(ethylcarbamoyl)pyrrolidin-1-yl]-1-oxopentan-2-yl]amino]-4-methyl-1-oxopentan-2-yl]amino]-4-methyl-1-oxopentan-2-yl]amino]-3-(4-hydroxyphenyl)-1-oxopropan-2-yl]amino]-3-hydroxy-1-oxopropan-2-yl]amino]-3-(1H-indol-3-yl)-1-oxopropan-2-yl]amino]-3-(1H-imidazol-5-yl)-1-oxopropan-2-yl]-5-oxopyrrolidine-2-carboxamide

> <PUBCHEM_IUPAC_SYSTEMATIC_NAME>
N-[1-[[1-[[1-[[1-[[1-[[1-[[5-[bis(azanyl)methylideneamino]-1-[2-(ethylcarbamoyl)pyrrolidin-1-yl]-1-oxidanylidene-pentan-2-yl]amino]-4-methyl-1-oxidanylidene-pentan-2-yl]amino]-4-methyl-1-oxidanylidene-pentan-2-yl]amino]-3-(4-hydroxyphenyl)-1-oxidanylidene-propan-2-yl]amino]-3-oxidanyl-1-oxidanylidene-propan-2-yl]amino]-3-(1H-indol-3-yl)-1-oxidanylidene-propan-2-yl]amino]-3-(1H-imidazol-5-yl)-1-oxidanylidene-propan-2-yl]-5-oxidanylidene-pyrrolidine-2-carboxamide

> <PUBCHEM_IUPAC_TRADITIONAL_NAME>
N-[2-[[2-[[2-[[2-[[1-[[1-[[1-[2-(ethylcarbamoyl)pyrrolidine-1-carbonyl]-4-guanidino-butyl]carbamoyl]-3-methyl-butyl]carbamoyl]-3-methyl-butyl]amino]-1-(4-hydroxybenzyl)-2-keto-ethyl]amino]-2-keto-1-methylol-ethyl]amino]-1-(1H-indol-3-ylmethyl)-2-keto-ethyl]amino]-1-(1H-imidazol-5-ylmethyl)-2-keto-ethyl]-5-keto-pyrrolidine-2-carboxamide

> <PUBCHEM_IUPAC_INCHI>
InChI=1S/C59H84N16O12/c1-6-63-57(86)48-14-10-22-75(48)58(87)41(13-9-21-64-59(60)61)68-51(80)42(23-32(2)3)69-52(81)43(24-33(4)5)70-53(82)44(25-34-15-17-37(77)18-16-34)71-56(85)47(30-76)74-54(83)45(26-35-28-65-39-12-8-7-11-38(35)39)72-55(84)46(27-36-29-62-31-66-36)73-50(79)40-19-20-49(78)67-40/h7-8,11-12,15-18,28-29,31-33,40-48,65,76-77H,6,9-10,13-14,19-27,30H2,1-5H3,(H,62,66)(H,63,86)(H,67,78)(H,68,80)(H,69,81)(H,70,82)(H,71,85)(H,72,84)(H,73,79)(H,74,83)(H4,60,61,64)

> <PUBCHEM_IUPAC_INCHIKEY>
GFIJNRVAKGFPGQ-UHFFFAOYSA-N

> <PUBCHEM_XLOGP3_AA>
0.7

> <PUBCHEM_EXACT_MASS>
1208.645462

> <PUBCHEM_MOLECULAR_FORMULA>
C59H84N16O12

> <PUBCHEM_MOLECULAR_WEIGHT>
1209.39826

> <PUBCHEM_OPENEYE_CAN_SMILES>
CCNC(=O)C1CCCN1C(=O)C(CCCN=C(N)N)NC(=O)C(CC(C)C)NC(=O)C(CC(C)C)NC(=O)C(CC2=CC=C(C=C2)O)NC(=O)C(CO)NC(=O)C(CC3=CNC4=CC=CC=C43)NC(=O)C(CC5=CN=CN5)NC(=O)C6CCC(=O)N6

> <PUBCHEM_OPENEYE_ISO_SMILES>
CCNC(=O)C1CCCN1C(=O)C(CCCN=C(N)N)NC(=O)C(CC(C)C)NC(=O)C(CC(C)C)NC(=O)C(CC2=CC=C(C=C2)O)NC(=O)C(CO)NC(=O)C(CC3=CNC4=CC=CC=C43)NC(=O)C(CC5=CN=CN5)NC(=O)C6CCC(=O)N6

> <PUBCHEM_CACTVS_TPSA>
432

> <PUBCHEM_MONOISOTOPIC_WEIGHT>
1208.645462

> <PUBCHEM_TOTAL_CHARGE>
0

> <PUBCHEM_HEAVY_ATOM_COUNT>
87

> <PUBCHEM_ATOM_DEF_STEREO_COUNT>
0

> <PUBCHEM_ATOM_UDEF_STEREO_COUNT>
9

> <PUBCHEM_BOND_DEF_STEREO_COUNT>
0

> <PUBCHEM_BOND_UDEF_STEREO_COUNT>
0

> <PUBCHEM_ISOTOPIC_ATOM_COUNT>
0

> <PUBCHEM_COMPONENT_COUNT>
1

> <PUBCHEM_CACTVS_TAUTO_COUNT>
1000

> <PUBCHEM_COORDINATE_TYPE>
1
5
255

> <PUBCHEM_BONDANNOTATIONS>
26  75  8
26  76  8
27  74  8
27  87  8
28  83  8
28  87  8
29  35  3
34  36  3
38  40  3
44  46  3
53  55  3
56  64  3
59  63  3
60  68  3
62  73  3
66  77  8
66  78  8
71  72  8
71  75  8
72  76  8
72  79  8
74  83  8
76  80  8
77  81  8
78  82  8
79  85  8
80  86  8
81  84  8
82  84  8
85  86  8

$$$$
