39507
  -OEChem-12171208182D

 61 64  0     1  0  0  0  0  0999 V2000
    4.7950    0.8130    0.0000 O   0  0  0  0  0  0  0  0  0  0  0  0
   10.0622    0.7958    0.0000 O   0  0  0  0  0  0  0  0  0  0  0  0
    2.0000   -2.7394    0.0000 O   0  0  0  0  0  0  0  0  0  0  0  0
    7.3931    0.3130    0.0000 C   0  0  1  0  0  0  0  0  0  0  0  0
    7.3931   -0.6870    0.0000 C   0  0  3  0  0  0  0  0  0  0  0  0
    8.3393    0.6177    0.0000 C   0  0  1  0  0  0  0  0  0  0  0  0
    6.5271   -1.1870    0.0000 C   0  0  3  0  0  0  0  0  0  0  0  0
    5.6610   -0.6870    0.0000 C   0  0  3  0  0  0  0  0  0  0  0  0
    8.9229   -0.1870    0.0000 C   0  0  1  0  0  0  0  0  0  0  0  0
    8.3393   -0.9917    0.0000 C   0  0  0  0  0  0  0  0  0  0  0  0
    6.5271    0.8130    0.0000 C   0  0  0  0  0  0  0  0  0  0  0  0
    5.6610    0.3130    0.0000 C   0  0  2  0  0  0  0  0  0  0  0  0
    4.7510   -1.1939    0.0000 C   0  0  1  0  0  0  0  0  0  0  0  0
    6.5431   -2.2285    0.0000 C   0  0  0  0  0  0  0  0  0  0  0  0
    7.3931    1.3130    0.0000 C   0  0  0  0  0  0  0  0  0  0  0  0
    8.0319    1.5693    0.0000 C   0  0  0  0  0  0  0  0  0  0  0  0
    9.1493    1.2041    0.0000 C   0  0  0  0  0  0  0  0  0  0  0  0
    5.6451   -2.7563    0.0000 C   0  0  0  0  0  0  0  0  0  0  0  0
    4.7430   -2.2355    0.0000 C   0  0  0  0  0  0  0  0  0  0  0  0
    9.9229   -0.1870    0.0000 C   0  0  0  0  0  0  0  0  0  0  0  0
    4.7587   -0.1939    0.0000 C   0  0  0  0  0  0  0  0  0  0  0  0
    3.8242   -0.6298    0.0000 C   0  0  0  0  0  0  0  0  0  0  0  0
    9.0465    2.1988    0.0000 C   0  0  0  0  0  0  0  0  0  0  0  0
    3.8076   -2.7852    0.0000 C   0  0  0  0  0  0  0  0  0  0  0  0
    2.8763   -1.1577    0.0000 C   0  0  0  0  0  0  0  0  0  0  0  0
    2.8680   -2.2427    0.0000 C   0  0  0  0  0  0  0  0  0  0  0  0
    9.8566    2.7852    0.0000 C   0  0  0  0  0  0  0  0  0  0  0  0
    7.4830   -1.5322    0.0000 H   0  0  0  0  0  0  0  0  0  0  0  0
    7.2664   -1.6063    0.0000 H   0  0  0  0  0  0  0  0  0  0  0  0
    6.3972   -0.2620    0.0000 H   0  0  0  0  0  0  0  0  0  0  0  0
    9.2046   -0.7393    0.0000 H   0  0  0  0  0  0  0  0  0  0  0  0
    8.0883   -1.5586    0.0000 H   0  0  0  0  0  0  0  0  0  0  0  0
    8.8767   -1.3010    0.0000 H   0  0  0  0  0  0  0  0  0  0  0  0
    6.9256    1.2879    0.0000 H   0  0  0  0  0  0  0  0  0  0  0  0
    6.1285    1.2879    0.0000 H   0  0  0  0  0  0  0  0  0  0  0  0
    5.6610    0.9330    0.0000 H   0  0  0  0  0  0  0  0  0  0  0  0
    6.7612   -2.8089    0.0000 H   0  0  0  0  0  0  0  0  0  0  0  0
    7.1523   -2.1130    0.0000 H   0  0  0  0  0  0  0  0  0  0  0  0
    8.0131    1.3130    0.0000 H   0  0  0  0  0  0  0  0  0  0  0  0
    7.3931    1.9330    0.0000 H   0  0  0  0  0  0  0  0  0  0  0  0
    6.7731    1.3130    0.0000 H   0  0  0  0  0  0  0  0  0  0  0  0
    8.6219    1.7599    0.0000 H   0  0  0  0  0  0  0  0  0  0  0  0
    7.8414    2.1593    0.0000 H   0  0  0  0  0  0  0  0  0  0  0  0
    7.4420    1.3787    0.0000 H   0  0  0  0  0  0  0  0  0  0  0  0
    5.2478   -3.2322    0.0000 H   0  0  0  0  0  0  0  0  0  0  0  0
    6.0460   -3.2292    0.0000 H   0  0  0  0  0  0  0  0  0  0  0  0
    9.9229   -0.8070    0.0000 H   0  0  0  0  0  0  0  0  0  0  0  0
   10.5429   -0.1870    0.0000 H   0  0  0  0  0  0  0  0  0  0  0  0
    9.9229    0.4330    0.0000 H   0  0  0  0  0  0  0  0  0  0  0  0
    5.3787   -0.1987    0.0000 H   0  0  0  0  0  0  0  0  0  0  0  0
    4.7635    0.4261    0.0000 H   0  0  0  0  0  0  0  0  0  0  0  0
    4.1388   -0.1891    0.0000 H   0  0  0  0  0  0  0  0  0  0  0  0
    3.8361   -0.0099    0.0000 H   0  0  0  0  0  0  0  0  0  0  0  0
    4.7950    1.4330    0.0000 H   0  0  0  0  0  0  0  0  0  0  0  0
    8.7757    2.7565    0.0000 H   0  0  0  0  0  0  0  0  0  0  0  0
    8.4502    2.0289    0.0000 H   0  0  0  0  0  0  0  0  0  0  0  0
    3.8100   -3.4052    0.0000 H   0  0  0  0  0  0  0  0  0  0  0  0
    2.3430   -0.8415    0.0000 H   0  0  0  0  0  0  0  0  0  0  0  0
   10.2201    2.2830    0.0000 H   0  0  0  0  0  0  0  0  0  0  0  0
   10.3588    3.1487    0.0000 H   0  0  0  0  0  0  0  0  0  0  0  0
    9.4930    3.2874    0.0000 H   0  0  0  0  0  0  0  0  0  0  0  0
 12  1  1  1  0  0  0
  1 54  1  0  0  0  0
  2 17  2  0  0  0  0
  3 26  2  0  0  0  0
  4  5  1  0  0  0  0
  4  6  1  0  0  0  0
  4 11  1  0  0  0  0
  4 15  1  1  0  0  0
  5  7  1  0  0  0  0
  5 10  1  0  0  0  0
  5 28  1  0  0  0  0
  6  9  1  0  0  0  0
  6 16  1  6  0  0  0
  6 17  1  0  0  0  0
  7  8  1  0  0  0  0
  7 14  1  0  0  0  0
  7 29  1  0  0  0  0
  8 12  1  0  0  0  0
  8 13  1  0  0  0  0
  8 30  1  0  0  0  0
  9 10  1  0  0  0  0
  9 20  1  6  0  0  0
  9 31  1  0  0  0  0
 10 32  1  0  0  0  0
 10 33  1  0  0  0  0
 11 12  1  0  0  0  0
 11 34  1  0  0  0  0
 11 35  1  0  0  0  0
 12 36  1  0  0  0  0
 13 19  1  0  0  0  0
 13 21  1  1  0  0  0
 13 22  1  0  0  0  0
 14 18  1  0  0  0  0
 14 37  1  0  0  0  0
 14 38  1  0  0  0  0
 15 39  1  0  0  0  0
 15 40  1  0  0  0  0
 15 41  1  0  0  0  0
 16 42  1  0  0  0  0
 16 43  1  0  0  0  0
 16 44  1  0  0  0  0
 17 23  1  0  0  0  0
 18 19  1  0  0  0  0
 18 45  1  0  0  0  0
 18 46  1  0  0  0  0
 19 24  2  0  0  0  0
 20 47  1  0  0  0  0
 20 48  1  0  0  0  0
 20 49  1  0  0  0  0
 21 50  1  0  0  0  0
 21 51  1  0  0  0  0
 21 52  1  0  0  0  0
 22 25  2  0  0  0  0
 22 53  1  0  0  0  0
 23 27  1  0  0  0  0
 23 55  1  0  0  0  0
 23 56  1  0  0  0  0
 24 26  1  0  0  0  0
 24 57  1  0  0  0  0
 25 26  1  0  0  0  0
 25 58  1  0  0  0  0
 27 59  1  0  0  0  0
 27 60  1  0  0  0  0
 27 61  1  0  0  0  0
M  END
> <PUBCHEM_COMPOUND_CID>
39507

> <PUBCHEM_COMPOUND_CANONICALIZED>
1

> <PUBCHEM_CACTVS_COMPLEXITY>
749

> <PUBCHEM_CACTVS_HBOND_ACCEPTOR>
3

> <PUBCHEM_CACTVS_HBOND_DONOR>
1

> <PUBCHEM_CACTVS_ROTATABLE_BOND>
2

> <PUBCHEM_CACTVS_SUBSKEYS>
AAADcfB4MAAAAAAAAAAAAAAAAAAAAYAAAAAwYIAAAAAAAGDAAAAAGgAACAAADxSggAICAAAAAgCIAqBSAAAAAAAgAAAICAEAAEgAEBIAAQAAQAAEgAAIAYOIzPDPgAAAAAAAAADAAAYAADAAAQAACAAAAA==

> <PUBCHEM_IUPAC_OPENEYE_NAME>
(10R,11S,13S,16R,17S)-11-hydroxy-10,13,16,17-tetramethyl-17-propanoyl-7,8,9,11,12,14,15,16-octahydro-6H-cyclopenta[a]phenanthren-3-one

> <PUBCHEM_IUPAC_CAS_NAME>
(10R,11S,13S,16R,17S)-11-hydroxy-10,13,16,17-tetramethyl-17-(1-oxopropyl)-7,8,9,11,12,14,15,16-octahydro-6H-cyclopenta[a]phenanthren-3-one

> <PUBCHEM_IUPAC_NAME>
(10R,11S,13S,16R,17S)-11-hydroxy-10,13,16,17-tetramethyl-17-propanoyl-7,8,9,11,12,14,15,16-octahydro-6H-cyclopenta[a]phenanthren-3-one

> <PUBCHEM_IUPAC_SYSTEMATIC_NAME>
(10R,11S,13S,16R,17S)-10,13,16,17-tetramethyl-11-oxidanyl-17-propanoyl-7,8,9,11,12,14,15,16-octahydro-6H-cyclopenta[a]phenanthren-3-one

> <PUBCHEM_IUPAC_TRADITIONAL_NAME>
(10R,11S,13S,16R,17S)-11-hydroxy-10,13,16,17-tetramethyl-17-propionyl-7,8,9,11,12,14,15,16-octahydro-6H-cyclopenta[a]phenanthren-3-one

> <PUBCHEM_IUPAC_INCHI>
InChI=1S/C24H34O3/c1-6-20(27)24(5)14(2)11-18-17-8-7-15-12-16(25)9-10-22(15,3)21(17)19(26)13-23(18,24)4/h9-10,12,14,17-19,21,26H,6-8,11,13H2,1-5H3/t14-,17?,18?,19+,21?,22+,23+,24-/m1/s1

> <PUBCHEM_IUPAC_INCHIKEY>
QTTRZHGPGKRAFB-PAIWTFDUSA-N

> <PUBCHEM_XLOGP3>
3.5

> <PUBCHEM_EXACT_MASS>
370.250795

> <PUBCHEM_MOLECULAR_FORMULA>
C24H34O3

> <PUBCHEM_MOLECULAR_WEIGHT>
370.52496

> <PUBCHEM_OPENEYE_CAN_SMILES>
CCC(=O)C1(C(CC2C1(CC(C3C2CCC4=CC(=O)C=CC34C)O)C)C)C

> <PUBCHEM_OPENEYE_ISO_SMILES>
CCC(=O)[C@]1([C@@H](CC2[C@@]1(C[C@@H](C3C2CCC4=CC(=O)C=C[C@]34C)O)C)C)C

> <PUBCHEM_CACTVS_TPSA>
54.4

> <PUBCHEM_MONOISOTOPIC_WEIGHT>
370.250795

> <PUBCHEM_TOTAL_CHARGE>
0

> <PUBCHEM_HEAVY_ATOM_COUNT>
27

> <PUBCHEM_ATOM_DEF_STEREO_COUNT>
5

> <PUBCHEM_ATOM_UDEF_STEREO_COUNT>
3

> <PUBCHEM_BOND_DEF_STEREO_COUNT>
0

> <PUBCHEM_BOND_UDEF_STEREO_COUNT>
0

> <PUBCHEM_ISOTOPIC_ATOM_COUNT>
0

> <PUBCHEM_COMPONENT_COUNT>
1

> <PUBCHEM_CACTVS_TAUTO_COUNT>
6

> <PUBCHEM_COORDINATE_TYPE>
1
5
255

> <PUBCHEM_BONDANNOTATIONS>
12  1  5
13  21  5
4  15  5
5  28  3
6  16  6
7  29  3
8  30  3
9  20  6

$$$$
