3954
  -OEChem-12171208052D

 68 71  0     0  0  0  0  0  0999 V2000
    6.9936    5.3301    0.0000 Cl  0  0  0  0  0  0  0  0  0  0  0  0
    4.4936    2.7320    0.0000 O   0  0  0  0  0  0  0  0  0  0  0  0
    3.6276   -1.2320    0.0000 O   0  0  0  0  0  0  0  0  0  0  0  0
    4.9936   -0.1340    0.0000 N   0  3  0  0  0  0  0  0  0  0  0  0
    2.6428   -2.0584    0.0000 N   0  0  0  0  0  0  0  0  0  0  0  0
    4.9936    1.8660    0.0000 C   0  0  0  0  0  0  0  0  0  0  0  0
    4.1276    0.3660    0.0000 C   0  0  0  0  0  0  0  0  0  0  0  0
    5.8596    0.3660    0.0000 C   0  0  0  0  0  0  0  0  0  0  0  0
    4.1276    1.3660    0.0000 C   0  0  0  0  0  0  0  0  0  0  0  0
    5.8596    1.3660    0.0000 C   0  0  0  0  0  0  0  0  0  0  0  0
    4.4936   -1.0000    0.0000 C   0  0  0  0  0  0  0  0  0  0  0  0
    4.9936   -1.8660    0.0000 C   0  0  0  0  0  0  0  0  0  0  0  0
    4.4936   -2.7320    0.0000 C   0  0  0  0  0  0  0  0  0  0  0  0
    5.4936    2.7320    0.0000 C   0  0  0  0  0  0  0  0  0  0  0  0
    3.9936   -3.5981    0.0000 C   0  0  0  0  0  0  0  0  0  0  0  0
    5.3596   -3.2320    0.0000 C   0  0  0  0  0  0  0  0  0  0  0  0
    3.6276   -2.2320    0.0000 C   0  0  0  0  0  0  0  0  0  0  0  0
    6.4936    2.7320    0.0000 C   0  0  0  0  0  0  0  0  0  0  0  0
    4.9936    3.5981    0.0000 C   0  0  0  0  0  0  0  0  0  0  0  0
    2.9936   -3.5981    0.0000 C   0  0  0  0  0  0  0  0  0  0  0  0
    5.3596   -4.2320    0.0000 C   0  0  0  0  0  0  0  0  0  0  0  0
    6.2257   -2.7320    0.0000 C   0  0  0  0  0  0  0  0  0  0  0  0
    4.4936   -4.4641    0.0000 C   0  0  0  0  0  0  0  0  0  0  0  0
    6.9936    3.5981    0.0000 C   0  0  0  0  0  0  0  0  0  0  0  0
    5.4936    4.4641    0.0000 C   0  0  0  0  0  0  0  0  0  0  0  0
    6.4936    4.4641    0.0000 C   0  0  0  0  0  0  0  0  0  0  0  0
    2.4936   -4.4641    0.0000 C   0  0  0  0  0  0  0  0  0  0  0  0
    6.2257   -4.7320    0.0000 C   0  0  0  0  0  0  0  0  0  0  0  0
    3.9936   -5.3301    0.0000 C   0  0  0  0  0  0  0  0  0  0  0  0
    7.0917   -3.2320    0.0000 C   0  0  0  0  0  0  0  0  0  0  0  0
    2.3008   -1.1186    0.0000 C   0  0  0  0  0  0  0  0  0  0  0  0
    2.0000   -2.8245    0.0000 C   0  0  0  0  0  0  0  0  0  0  0  0
    2.9936   -5.3301    0.0000 C   0  0  0  0  0  0  0  0  0  0  0  0
    7.0917   -4.2320    0.0000 C   0  0  0  0  0  0  0  0  0  0  0  0
    5.3036   -0.6709    0.0000 H   0  0  0  0  0  0  0  0  0  0  0  0
    3.5170    0.4737    0.0000 H   0  0  0  0  0  0  0  0  0  0  0  0
    3.9155   -0.2166    0.0000 H   0  0  0  0  0  0  0  0  0  0  0  0
    6.0717   -0.2166    0.0000 H   0  0  0  0  0  0  0  0  0  0  0  0
    6.4702    0.4737    0.0000 H   0  0  0  0  0  0  0  0  0  0  0  0
    3.9155    1.9486    0.0000 H   0  0  0  0  0  0  0  0  0  0  0  0
    3.5170    1.2584    0.0000 H   0  0  0  0  0  0  0  0  0  0  0  0
    6.4702    1.2584    0.0000 H   0  0  0  0  0  0  0  0  0  0  0  0
    6.0717    1.9486    0.0000 H   0  0  0  0  0  0  0  0  0  0  0  0
    4.0187   -0.6015    0.0000 H   0  0  0  0  0  0  0  0  0  0  0  0
    4.0187   -1.3985    0.0000 H   0  0  0  0  0  0  0  0  0  0  0  0
    5.4686   -2.2646    0.0000 H   0  0  0  0  0  0  0  0  0  0  0  0
    5.4686   -1.4675    0.0000 H   0  0  0  0  0  0  0  0  0  0  0  0
    3.8736    2.7320    0.0000 H   0  0  0  0  0  0  0  0  0  0  0  0
    6.8036    2.1951    0.0000 H   0  0  0  0  0  0  0  0  0  0  0  0
    4.3736    3.5981    0.0000 H   0  0  0  0  0  0  0  0  0  0  0  0
    2.6836   -3.0611    0.0000 H   0  0  0  0  0  0  0  0  0  0  0  0
    4.8227   -4.5420    0.0000 H   0  0  0  0  0  0  0  0  0  0  0  0
    5.1136   -4.4641    0.0000 H   0  0  0  0  0  0  0  0  0  0  0  0
    6.2257   -2.1120    0.0000 H   0  0  0  0  0  0  0  0  0  0  0  0
    7.6136    3.5981    0.0000 H   0  0  0  0  0  0  0  0  0  0  0  0
    5.1836    5.0010    0.0000 H   0  0  0  0  0  0  0  0  0  0  0  0
    1.8736   -4.4641    0.0000 H   0  0  0  0  0  0  0  0  0  0  0  0
    6.2257   -5.3520    0.0000 H   0  0  0  0  0  0  0  0  0  0  0  0
    4.3036   -5.8671    0.0000 H   0  0  0  0  0  0  0  0  0  0  0  0
    7.6286   -2.9220    0.0000 H   0  0  0  0  0  0  0  0  0  0  0  0
    2.8834   -0.9066    0.0000 H   0  0  0  0  0  0  0  0  0  0  0  0
    2.0888   -0.5360    0.0000 H   0  0  0  0  0  0  0  0  0  0  0  0
    1.7182   -1.3307    0.0000 H   0  0  0  0  0  0  0  0  0  0  0  0
    1.5250   -2.4260    0.0000 H   0  0  0  0  0  0  0  0  0  0  0  0
    1.6015   -3.2994    0.0000 H   0  0  0  0  0  0  0  0  0  0  0  0
    2.4750   -3.2230    0.0000 H   0  0  0  0  0  0  0  0  0  0  0  0
    7.6286   -4.5420    0.0000 H   0  0  0  0  0  0  0  0  0  0  0  0
    2.6836   -5.8671    0.0000 H   0  0  0  0  0  0  0  0  0  0  0  0
  1 26  1  0  0  0  0
  2  6  1  0  0  0  0
  2 48  1  0  0  0  0
  3 17  2  0  0  0  0
  4  7  1  0  0  0  0
  4  8  1  0  0  0  0
  4 11  1  0  0  0  0
  4 35  1  0  0  0  0
  5 17  1  0  0  0  0
  5 31  1  0  0  0  0
  5 32  1  0  0  0  0
  6  9  1  0  0  0  0
  6 10  1  0  0  0  0
  6 14  1  0  0  0  0
  7  9  1  0  0  0  0
  7 36  1  0  0  0  0
  7 37  1  0  0  0  0
  8 10  1  0  0  0  0
  8 38  1  0  0  0  0
  8 39  1  0  0  0  0
  9 40  1  0  0  0  0
  9 41  1  0  0  0  0
 10 42  1  0  0  0  0
 10 43  1  0  0  0  0
 11 12  1  0  0  0  0
 11 44  1  0  0  0  0
 11 45  1  0  0  0  0
 12 13  1  0  0  0  0
 12 46  1  0  0  0  0
 12 47  1  0  0  0  0
 13 15  1  0  0  0  0
 13 16  1  0  0  0  0
 13 17  1  0  0  0  0
 14 18  2  0  0  0  0
 14 19  1  0  0  0  0
 15 20  2  0  0  0  0
 15 23  1  0  0  0  0
 16 21  2  0  0  0  0
 16 22  1  0  0  0  0
 18 24  1  0  0  0  0
 18 49  1  0  0  0  0
 19 25  2  0  0  0  0
 19 50  1  0  0  0  0
 20 27  1  0  0  0  0
 20 51  1  0  0  0  0
 21 28  1  0  0  0  0
 21 52  1  0  0  0  0
 22 30  2  0  0  0  0
 22 54  1  0  0  0  0
 23 29  2  0  0  0  0
 23 53  1  0  0  0  0
 24 26  2  0  0  0  0
 24 55  1  0  0  0  0
 25 26  1  0  0  0  0
 25 56  1  0  0  0  0
 27 33  2  0  0  0  0
 27 57  1  0  0  0  0
 28 34  2  0  0  0  0
 28 58  1  0  0  0  0
 29 33  1  0  0  0  0
 29 59  1  0  0  0  0
 30 34  1  0  0  0  0
 30 60  1  0  0  0  0
 31 61  1  0  0  0  0
 31 62  1  0  0  0  0
 31 63  1  0  0  0  0
 32 64  1  0  0  0  0
 32 65  1  0  0  0  0
 32 66  1  0  0  0  0
 33 68  1  0  0  0  0
 34 67  1  0  0  0  0
M  CHG  1   4   1
M  END
> <PUBCHEM_COMPOUND_CID>
3954

> <PUBCHEM_COMPOUND_CANONICALIZED>
1

> <PUBCHEM_CACTVS_COMPLEXITY>
623

> <PUBCHEM_CACTVS_HBOND_ACCEPTOR>
2

> <PUBCHEM_CACTVS_HBOND_DONOR>
2

> <PUBCHEM_CACTVS_ROTATABLE_BOND>
7

> <PUBCHEM_CACTVS_SUBSKEYS>
AAADcfB7MAAEAAAAAAAAAAAAAAAAAAAAAAA8YMEAAAAAAAABUAAAHgIQCAAADkbBmCQyAIPAAgCIAiFSEAACAAAgBQAIiIEICogIJjKBlxGEcAAm0gGImAecyOCPhAAAAAAAAAAIAAAAAAAAAAAAAAAAAA==

> <PUBCHEM_IUPAC_OPENEYE_NAME>
4-[4-(4-chlorophenyl)-4-hydroxy-piperidin-1-ium-1-yl]-N,N-dimethyl-2,2-diphenyl-butanamide

> <PUBCHEM_IUPAC_CAS_NAME>
4-[4-(4-chlorophenyl)-4-hydroxy-1-piperidin-1-iumyl]-N,N-dimethyl-2,2-diphenylbutanamide

> <PUBCHEM_IUPAC_NAME>
4-[4-(4-chlorophenyl)-4-hydroxypiperidin-1-ium-1-yl]-N,N-dimethyl-2,2-diphenylbutanamide

> <PUBCHEM_IUPAC_SYSTEMATIC_NAME>
4-[4-(4-chlorophenyl)-4-oxidanyl-piperidin-1-ium-1-yl]-N,N-dimethyl-2,2-diphenyl-butanamide

> <PUBCHEM_IUPAC_TRADITIONAL_NAME>
4-[4-(4-chlorophenyl)-4-hydroxy-piperidin-1-ium-1-yl]-N,N-dimethyl-2,2-diphenyl-butyramide

> <PUBCHEM_IUPAC_INCHI>
InChI=1S/C29H33ClN2O2/c1-31(2)27(33)29(24-9-5-3-6-10-24,25-11-7-4-8-12-25)19-22-32-20-17-28(34,18-21-32)23-13-15-26(30)16-14-23/h3-16,34H,17-22H2,1-2H3/p+1

> <PUBCHEM_IUPAC_INCHIKEY>
RDOIQAHITMMDAJ-UHFFFAOYSA-O

> <PUBCHEM_XLOGP3_AA>
5

> <PUBCHEM_EXACT_MASS>
477.230881

> <PUBCHEM_MOLECULAR_FORMULA>
C29H34ClN2O2+

> <PUBCHEM_MOLECULAR_WEIGHT>
478.04546

> <PUBCHEM_OPENEYE_CAN_SMILES>
CN(C)C(=O)C(CC[NH+]1CCC(CC1)(C2=CC=C(C=C2)Cl)O)(C3=CC=CC=C3)C4=CC=CC=C4

> <PUBCHEM_OPENEYE_ISO_SMILES>
CN(C)C(=O)C(CC[NH+]1CCC(CC1)(C2=CC=C(C=C2)Cl)O)(C3=CC=CC=C3)C4=CC=CC=C4

> <PUBCHEM_CACTVS_TPSA>
45

> <PUBCHEM_MONOISOTOPIC_WEIGHT>
477.230881

> <PUBCHEM_TOTAL_CHARGE>
1

> <PUBCHEM_HEAVY_ATOM_COUNT>
34

> <PUBCHEM_ATOM_DEF_STEREO_COUNT>
0

> <PUBCHEM_ATOM_UDEF_STEREO_COUNT>
0

> <PUBCHEM_BOND_DEF_STEREO_COUNT>
0

> <PUBCHEM_BOND_UDEF_STEREO_COUNT>
0

> <PUBCHEM_ISOTOPIC_ATOM_COUNT>
0

> <PUBCHEM_COMPONENT_COUNT>
1

> <PUBCHEM_CACTVS_TAUTO_COUNT>
1

> <PUBCHEM_COORDINATE_TYPE>
1
5
255

> <PUBCHEM_BONDANNOTATIONS>
14  18  8
14  19  8
15  20  8
15  23  8
16  21  8
16  22  8
18  24  8
19  25  8
20  27  8
21  28  8
22  30  8
23  29  8
24  26  8
25  26  8
27  33  8
28  34  8
29  33  8
30  34  8

$$$$
