40704
  -OEChem-12171208182D

 73 76  0     1  0  0  0  0  0999 V2000
    3.4211   -3.2687    0.0000 Br  0  0  0  0  0  0  0  0  0  0  0  0
    5.2347    0.6950    0.0000 O   0  0  0  0  0  0  0  0  0  0  0  0
    2.0000   -2.0372    0.0000 O   0  0  0  0  0  0  0  0  0  0  0  0
    7.2253   -4.5047    0.0000 O   0  0  0  0  0  0  0  0  0  0  0  0
    5.7390   -5.8430    0.0000 O   0  0  0  0  0  0  0  0  0  0  0  0
    3.9563   -1.6214    0.0000 N   0  3  0  0  0  0  0  0  0  0  0  0
    7.0972    4.5636    0.0000 C   0  0  3  0  0  0  0  0  0  0  0  0
    8.9291    4.3224    0.0000 C   0  0  0  0  0  0  0  0  0  0  0  0
    7.3560    5.5295    0.0000 C   0  0  3  0  0  0  0  0  0  0  0  0
    6.6194    6.5121    0.0000 C   0  0  0  0  0  0  0  0  0  0  0  0
    5.5620    3.3204    0.0000 C   0  0  3  0  0  0  0  0  0  0  0  0
    4.7530    4.7217    0.0000 C   0  0  0  0  0  0  0  0  0  0  0  0
    4.6485    3.7272    0.0000 C   0  0  0  0  0  0  0  0  0  0  0  0
    9.4291    3.4564    0.0000 C   0  0  0  0  0  0  0  0  0  0  0  0
    9.7951    4.8224    0.0000 C   0  0  0  0  0  0  0  0  0  0  0  0
    5.7699    2.3423    0.0000 C   0  0  0  0  0  0  0  0  0  0  0  0
    5.0268    1.6732    0.0000 C   0  0  0  0  0  0  0  0  0  0  0  0
    4.4915    0.0259    0.0000 C   0  0  0  0  0  0  0  0  0  0  0  0
    4.6994   -0.9523    0.0000 C   0  0  0  0  0  0  0  0  0  0  0  0
    3.6473   -2.5724    0.0000 C   0  0  0  0  0  0  0  0  0  0  0  0
    3.2872   -0.8782    0.0000 C   0  0  0  0  0  0  0  0  0  0  0  0
    4.9074   -1.9304    0.0000 C   0  0  0  0  0  0  0  0  0  0  0  0
    2.6691   -2.7804    0.0000 C   0  0  0  0  0  0  0  0  0  0  0  0
    2.3090   -1.0862    0.0000 C   0  0  0  0  0  0  0  0  0  0  0  0
    5.1153   -2.9086    0.0000 C   0  0  0  0  0  0  0  0  0  0  0  0
    6.0663   -3.2176    0.0000 C   0  0  0  0  0  0  0  0  0  0  0  0
    4.3721   -3.5777    0.0000 C   0  0  0  0  0  0  0  0  0  0  0  0
    6.2742   -4.1957    0.0000 C   0  0  0  0  0  0  0  0  0  0  0  0
    4.5800   -4.5558    0.0000 C   0  0  0  0  0  0  0  0  0  0  0  0
    5.5311   -4.8648    0.0000 C   0  0  0  0  0  0  0  0  0  0  0  0
    7.9684   -3.8356    0.0000 C   0  0  0  0  0  0  0  0  0  0  0  0
    4.9958   -6.5121    0.0000 C   0  0  0  0  0  0  0  0  0  0  0  0
    7.2654    3.9669    0.0000 H   0  0  0  0  0  0  0  0  0  0  0  0
    7.7968    5.9654    0.0000 H   0  0  0  0  0  0  0  0  0  0  0  0
    6.9372    7.0445    0.0000 H   0  0  0  0  0  0  0  0  0  0  0  0
    6.0062    6.6041    0.0000 H   0  0  0  0  0  0  0  0  0  0  0  0
    5.0802    2.9303    0.0000 H   0  0  0  0  0  0  0  0  0  0  0  0
    4.6507    5.3332    0.0000 H   0  0  0  0  0  0  0  0  0  0  0  0
    4.1333    4.7028    0.0000 H   0  0  0  0  0  0  0  0  0  0  0  0
    4.0420    3.8561    0.0000 H   0  0  0  0  0  0  0  0  0  0  0  0
    4.4569    3.1375    0.0000 H   0  0  0  0  0  0  0  0  0  0  0  0
    8.8922    3.1464    0.0000 H   0  0  0  0  0  0  0  0  0  0  0  0
    9.7391    2.9194    0.0000 H   0  0  0  0  0  0  0  0  0  0  0  0
    9.9660    3.7664    0.0000 H   0  0  0  0  0  0  0  0  0  0  0  0
   10.1051    4.2855    0.0000 H   0  0  0  0  0  0  0  0  0  0  0  0
   10.3321    5.1324    0.0000 H   0  0  0  0  0  0  0  0  0  0  0  0
    9.4851    5.3593    0.0000 H   0  0  0  0  0  0  0  0  0  0  0  0
    6.0985    1.8165    0.0000 H   0  0  0  0  0  0  0  0  0  0  0  0
    6.3448    2.5746    0.0000 H   0  0  0  0  0  0  0  0  0  0  0  0
    4.6982    2.1990    0.0000 H   0  0  0  0  0  0  0  0  0  0  0  0
    4.4519    1.4409    0.0000 H   0  0  0  0  0  0  0  0  0  0  0  0
    4.1630    0.5517    0.0000 H   0  0  0  0  0  0  0  0  0  0  0  0
    3.9167   -0.2064    0.0000 H   0  0  0  0  0  0  0  0  0  0  0  0
    5.0280   -1.4780    0.0000 H   0  0  0  0  0  0  0  0  0  0  0  0
    5.2743   -0.7200    0.0000 H   0  0  0  0  0  0  0  0  0  0  0  0
    3.6689   -3.1921    0.0000 H   0  0  0  0  0  0  0  0  0  0  0  0
    4.2612   -2.6587    0.0000 H   0  0  0  0  0  0  0  0  0  0  0  0
    3.8130   -0.5497    0.0000 H   0  0  0  0  0  0  0  0  0  0  0  0
    3.0549   -0.3034    0.0000 H   0  0  0  0  0  0  0  0  0  0  0  0
    5.5270   -1.9088    0.0000 H   0  0  0  0  0  0  0  0  0  0  0  0
    4.9936   -1.3164    0.0000 H   0  0  0  0  0  0  0  0  0  0  0  0
    2.2874   -0.4665    0.0000 H   0  0  0  0  0  0  0  0  0  0  0  0
    2.1433   -3.1089    0.0000 H   0  0  0  0  0  0  0  0  0  0  0  0
    2.9014   -3.3552    0.0000 H   0  0  0  0  0  0  0  0  0  0  0  0
    1.6950   -0.9999    0.0000 H   0  0  0  0  0  0  0  0  0  0  0  0
    6.5271   -2.8027    0.0000 H   0  0  0  0  0  0  0  0  0  0  0  0
    4.1193   -4.9707    0.0000 H   0  0  0  0  0  0  0  0  0  0  0  0
    8.3833   -4.2964    0.0000 H   0  0  0  0  0  0  0  0  0  0  0  0
    8.4292   -3.4208    0.0000 H   0  0  0  0  0  0  0  0  0  0  0  0
    7.5536   -3.3749    0.0000 H   0  0  0  0  0  0  0  0  0  0  0  0
    4.5810   -6.0514    0.0000 H   0  0  0  0  0  0  0  0  0  0  0  0
    4.5351   -6.9270    0.0000 H   0  0  0  0  0  0  0  0  0  0  0  0
    5.4107   -6.9729    0.0000 H   0  0  0  0  0  0  0  0  0  0  0  0
  1 27  1  0  0  0  0
  2 17  1  0  0  0  0
  2 18  1  0  0  0  0
  3 23  1  0  0  0  0
  3 24  1  0  0  0  0
  4 28  1  0  0  0  0
  4 31  1  0  0  0  0
  5 30  1  0  0  0  0
  5 32  1  0  0  0  0
  6 19  1  0  0  0  0
  6 20  1  0  0  0  0
  6 21  1  0  0  0  0
  6 22  1  0  0  0  0
  7  8  1  0  0  0  0
  7 10  1  0  0  0  0
  7 11  1  0  0  0  0
  7 33  1  0  0  0  0
  8  9  1  0  0  0  0
  8 14  1  0  0  0  0
  8 15  1  0  0  0  0
  9 10  1  0  0  0  0
  9 12  1  0  0  0  0
  9 34  1  0  0  0  0
 10 35  1  0  0  0  0
 10 36  1  0  0  0  0
 11 13  1  0  0  0  0
 11 16  1  0  0  0  0
 11 37  1  0  0  0  0
 12 13  1  0  0  0  0
 12 38  1  0  0  0  0
 12 39  1  0  0  0  0
 13 40  1  0  0  0  0
 13 41  1  0  0  0  0
 14 42  1  0  0  0  0
 14 43  1  0  0  0  0
 14 44  1  0  0  0  0
 15 45  1  0  0  0  0
 15 46  1  0  0  0  0
 15 47  1  0  0  0  0
 16 17  1  0  0  0  0
 16 48  1  0  0  0  0
 16 49  1  0  0  0  0
 17 50  1  0  0  0  0
 17 51  1  0  0  0  0
 18 19  1  0  0  0  0
 18 52  1  0  0  0  0
 18 53  1  0  0  0  0
 19 54  1  0  0  0  0
 19 55  1  0  0  0  0
 20 23  1  0  0  0  0
 20 56  1  0  0  0  0
 20 57  1  0  0  0  0
 21 24  1  0  0  0  0
 21 58  1  0  0  0  0
 21 59  1  0  0  0  0
 22 25  1  0  0  0  0
 22 60  1  0  0  0  0
 22 61  1  0  0  0  0
 23 63  1  0  0  0  0
 23 64  1  0  0  0  0
 24 62  1  0  0  0  0
 24 65  1  0  0  0  0
 25 26  2  0  0  0  0
 25 27  1  0  0  0  0
 26 28  1  0  0  0  0
 26 66  1  0  0  0  0
 27 29  2  0  0  0  0
 28 30  2  0  0  0  0
 29 30  1  0  0  0  0
 29 67  1  0  0  0  0
 31 68  1  0  0  0  0
 31 69  1  0  0  0  0
 31 70  1  0  0  0  0
 32 71  1  0  0  0  0
 32 72  1  0  0  0  0
 32 73  1  0  0  0  0
M  CHG  1   6   1
M  END
> <PUBCHEM_COMPOUND_CID>
40704

> <PUBCHEM_COMPOUND_CANONICALIZED>
1

> <PUBCHEM_CACTVS_COMPLEXITY>
596

> <PUBCHEM_CACTVS_HBOND_ACCEPTOR>
4

> <PUBCHEM_CACTVS_HBOND_DONOR>
0

> <PUBCHEM_CACTVS_ROTATABLE_BOND>
10

> <PUBCHEM_CACTVS_SUBSKEYS>
AAADcfB6OAAAEAAAAAAAAAAAAABgAAAAAAA8YMEAAAAAAAABAAAAHgBAAAABrwThmAYyBoMABACAAiBCAACCCAAgIAQAiAAOjKgPJiKEsRuHMCpkwBGaqhew0PIPoBABAIAAwADAIAYBACGAAAAAAAAAAA==

> <PUBCHEM_IUPAC_OPENEYE_NAME>
4-[(2-bromo-4,5-dimethoxy-phenyl)methyl]-4-[2-[2-(6,6-dimethylnorpinan-2-yl)ethoxy]ethyl]morpholin-4-ium

> <PUBCHEM_IUPAC_CAS_NAME>
4-[(2-bromo-4,5-dimethoxyphenyl)methyl]-4-[2-[2-(6,6-dimethyl-4-bicyclo[3.1.1]heptanyl)ethoxy]ethyl]morpholin-4-ium

> <PUBCHEM_IUPAC_NAME>
4-[(2-bromo-4,5-dimethoxyphenyl)methyl]-4-[2-[2-(6,6-dimethyl-4-bicyclo[3.1.1]heptanyl)ethoxy]ethyl]morpholin-4-ium

> <PUBCHEM_IUPAC_SYSTEMATIC_NAME>
4-[(2-bromanyl-4,5-dimethoxy-phenyl)methyl]-4-[2-[2-(6,6-dimethyl-4-bicyclo[3.1.1]heptanyl)ethoxy]ethyl]morpholin-4-ium

> <PUBCHEM_IUPAC_TRADITIONAL_NAME>
4-(2-bromo-4,5-dimethoxy-benzyl)-4-[2-[2-(6,6-dimethylnorpinan-2-yl)ethoxy]ethyl]morpholin-4-ium

> <PUBCHEM_IUPAC_INCHI>
InChI=1S/C26H41BrNO4/c1-26(2)21-6-5-19(22(26)16-21)7-11-31-12-8-28(9-13-32-14-10-28)18-20-15-24(29-3)25(30-4)17-23(20)27/h15,17,19,21-22H,5-14,16,18H2,1-4H3/q+1

> <PUBCHEM_IUPAC_INCHIKEY>
DDHUTBKXLWCZCO-UHFFFAOYSA-N

> <PUBCHEM_XLOGP3_AA>
5.4

> <PUBCHEM_EXACT_MASS>
510.221896

> <PUBCHEM_MOLECULAR_FORMULA>
C26H41BrNO4+

> <PUBCHEM_MOLECULAR_WEIGHT>
511.51204

> <PUBCHEM_OPENEYE_CAN_SMILES>
CC1(C2CCC(C1C2)CCOCC[N+]3(CCOCC3)CC4=CC(=C(C=C4Br)OC)OC)C

> <PUBCHEM_OPENEYE_ISO_SMILES>
CC1(C2CCC(C1C2)CCOCC[N+]3(CCOCC3)CC4=CC(=C(C=C4Br)OC)OC)C

> <PUBCHEM_CACTVS_TPSA>
36.9

> <PUBCHEM_MONOISOTOPIC_WEIGHT>
510.221896

> <PUBCHEM_TOTAL_CHARGE>
1

> <PUBCHEM_HEAVY_ATOM_COUNT>
32

> <PUBCHEM_ATOM_DEF_STEREO_COUNT>
0

> <PUBCHEM_ATOM_UDEF_STEREO_COUNT>
3

> <PUBCHEM_BOND_DEF_STEREO_COUNT>
0

> <PUBCHEM_BOND_UDEF_STEREO_COUNT>
0

> <PUBCHEM_ISOTOPIC_ATOM_COUNT>
0

> <PUBCHEM_COMPONENT_COUNT>
1

> <PUBCHEM_CACTVS_TAUTO_COUNT>
1

> <PUBCHEM_COORDINATE_TYPE>
1
5
255

> <PUBCHEM_BONDANNOTATIONS>
11  16  3
25  26  8
25  27  8
26  28  8
27  29  8
28  30  8
29  30  8
7  10  3
9  12  3

$$$$
