41781
  -OEChem-12171208182D

 44 45  0     0  0  0  0  0  0999 V2000
    7.1962   -0.5000    0.0000 S   0  0  0  0  0  0  0  0  0  0  0  0
    8.1962   -0.5000    0.0000 O   0  0  0  0  0  0  0  0  0  0  0  0
    6.1962   -0.5000    0.0000 O   0  0  0  0  0  0  0  0  0  0  0  0
    8.9282    0.5000    0.0000 O   0  0  0  0  0  0  0  0  0  0  0  0
    8.0622    2.0000    0.0000 N   0  0  0  0  0  0  0  0  0  0  0  0
    5.4641   -1.5000    0.0000 N   0  0  0  0  0  0  0  0  0  0  0  0
    7.1962    0.5000    0.0000 N   0  0  0  0  0  0  0  0  0  0  0  0
    8.0622   -3.0000    0.0000 N   0  0  0  0  0  0  0  0  0  0  0  0
    8.9282    2.5000    0.0000 C   0  0  0  0  0  0  0  0  0  0  0  0
    7.1962   -1.5000    0.0000 C   0  0  0  0  0  0  0  0  0  0  0  0
    6.3301   -2.0000    0.0000 C   0  0  0  0  0  0  0  0  0  0  0  0
    4.5981   -2.0000    0.0000 C   0  0  0  0  0  0  0  0  0  0  0  0
    8.9282    3.5000    0.0000 C   0  0  0  0  0  0  0  0  0  0  0  0
    9.7942    2.0000    0.0000 C   0  0  0  0  0  0  0  0  0  0  0  0
    8.0622    1.0000    0.0000 C   0  0  0  0  0  0  0  0  0  0  0  0
    8.0622   -2.0000    0.0000 C   0  0  0  0  0  0  0  0  0  0  0  0
    6.3301   -3.0000    0.0000 C   0  0  0  0  0  0  0  0  0  0  0  0
    3.7320   -1.5000    0.0000 C   0  0  0  0  0  0  0  0  0  0  0  0
    2.8660   -2.0000    0.0000 C   0  0  0  0  0  0  0  0  0  0  0  0
    4.5981   -3.0000    0.0000 C   0  0  0  0  0  0  0  0  0  0  0  0
    7.1962   -3.5000    0.0000 C   0  0  0  0  0  0  0  0  0  0  0  0
    2.8660   -3.0000    0.0000 C   0  0  0  0  0  0  0  0  0  0  0  0
    3.7320   -3.5000    0.0000 C   0  0  0  0  0  0  0  0  0  0  0  0
    2.0000   -1.5000    0.0000 C   0  0  0  0  0  0  0  0  0  0  0  0
    8.9282    1.8800    0.0000 H   0  0  0  0  0  0  0  0  0  0  0  0
    7.5252    2.3100    0.0000 H   0  0  0  0  0  0  0  0  0  0  0  0
    5.4641   -0.8800    0.0000 H   0  0  0  0  0  0  0  0  0  0  0  0
    6.6592    0.8100    0.0000 H   0  0  0  0  0  0  0  0  0  0  0  0
    9.5482    3.5000    0.0000 H   0  0  0  0  0  0  0  0  0  0  0  0
    8.9282    4.1200    0.0000 H   0  0  0  0  0  0  0  0  0  0  0  0
    8.3082    3.5000    0.0000 H   0  0  0  0  0  0  0  0  0  0  0  0
    9.4842    1.4631    0.0000 H   0  0  0  0  0  0  0  0  0  0  0  0
   10.3312    1.6900    0.0000 H   0  0  0  0  0  0  0  0  0  0  0  0
   10.1042    2.5369    0.0000 H   0  0  0  0  0  0  0  0  0  0  0  0
    8.5991   -1.6900    0.0000 H   0  0  0  0  0  0  0  0  0  0  0  0
    5.7932   -3.3100    0.0000 H   0  0  0  0  0  0  0  0  0  0  0  0
    3.7320   -0.8800    0.0000 H   0  0  0  0  0  0  0  0  0  0  0  0
    5.1350   -3.3100    0.0000 H   0  0  0  0  0  0  0  0  0  0  0  0
    7.1962   -4.1200    0.0000 H   0  0  0  0  0  0  0  0  0  0  0  0
    2.3291   -3.3100    0.0000 H   0  0  0  0  0  0  0  0  0  0  0  0
    3.7320   -4.1200    0.0000 H   0  0  0  0  0  0  0  0  0  0  0  0
    2.3100   -0.9631    0.0000 H   0  0  0  0  0  0  0  0  0  0  0  0
    1.4631   -1.1900    0.0000 H   0  0  0  0  0  0  0  0  0  0  0  0
    1.6900   -2.0369    0.0000 H   0  0  0  0  0  0  0  0  0  0  0  0
  1  2  2  0  0  0  0
  1  3  2  0  0  0  0
  1  7  1  0  0  0  0
  1 10  1  0  0  0  0
  4 15  2  0  0  0  0
  5  9  1  0  0  0  0
  5 15  1  0  0  0  0
  5 26  1  0  0  0  0
  6 11  1  0  0  0  0
  6 12  1  0  0  0  0
  6 27  1  0  0  0  0
  7 15  1  0  0  0  0
  7 28  1  0  0  0  0
  8 16  2  0  0  0  0
  8 21  1  0  0  0  0
  9 13  1  0  0  0  0
  9 14  1  0  0  0  0
  9 25  1  0  0  0  0
 10 11  2  0  0  0  0
 10 16  1  0  0  0  0
 11 17  1  0  0  0  0
 12 18  1  0  0  0  0
 12 20  2  0  0  0  0
 13 29  1  0  0  0  0
 13 30  1  0  0  0  0
 13 31  1  0  0  0  0
 14 32  1  0  0  0  0
 14 33  1  0  0  0  0
 14 34  1  0  0  0  0
 16 35  1  0  0  0  0
 17 21  2  0  0  0  0
 17 36  1  0  0  0  0
 18 19  2  0  0  0  0
 18 37  1  0  0  0  0
 19 22  1  0  0  0  0
 19 24  1  0  0  0  0
 20 23  1  0  0  0  0
 20 38  1  0  0  0  0
 21 39  1  0  0  0  0
 22 23  2  0  0  0  0
 22 40  1  0  0  0  0
 23 41  1  0  0  0  0
 24 42  1  0  0  0  0
 24 43  1  0  0  0  0
 24 44  1  0  0  0  0
M  END
> <PUBCHEM_COMPOUND_CID>
41781

> <PUBCHEM_COMPOUND_CANONICALIZED>
1

> <PUBCHEM_CACTVS_COMPLEXITY>
518

> <PUBCHEM_CACTVS_HBOND_ACCEPTOR>
5

> <PUBCHEM_CACTVS_HBOND_DONOR>
3

> <PUBCHEM_CACTVS_ROTATABLE_BOND>
5

> <PUBCHEM_CACTVS_SUBSKEYS>
AAADceB7sABAAAAAAAAAAAAAAAAAAAAAAAA8QAAAAAAAAAABwAAAHgQQQAAADCjBWgQ/wZLIEAKoAjRnVHDCgDAxAiAI2Lw4ZJiIIGLA0dGEJAhglgLIyAcQgAAOAAAAQAAAAAAAAACAAAAAAAAAAAAAAA==

> <PUBCHEM_IUPAC_OPENEYE_NAME>
1-isopropyl-3-[[4-(3-methylanilino)-3-pyridyl]sulfonyl]urea

> <PUBCHEM_IUPAC_CAS_NAME>
1-[[4-(3-methylanilino)-3-pyridinyl]sulfonyl]-3-propan-2-ylurea

> <PUBCHEM_IUPAC_NAME>
1-[4-(3-methylanilino)pyridin-3-yl]sulfonyl-3-propan-2-ylurea

> <PUBCHEM_IUPAC_SYSTEMATIC_NAME>
1-[4-[(3-methylphenyl)amino]pyridin-3-yl]sulfonyl-3-propan-2-yl-urea

> <PUBCHEM_IUPAC_TRADITIONAL_NAME>
1-isopropyl-3-[[4-(m-toluidino)-3-pyridyl]sulfonyl]urea

> <PUBCHEM_IUPAC_INCHI>
InChI=1S/C16H20N4O3S/c1-11(2)18-16(21)20-24(22,23)15-10-17-8-7-14(15)19-13-6-4-5-12(3)9-13/h4-11H,1-3H3,(H,17,19)(H2,18,20,21)

> <PUBCHEM_IUPAC_INCHIKEY>
NGBFQHCMQULJNZ-UHFFFAOYSA-N

> <PUBCHEM_XLOGP3_AA>
2.7

> <PUBCHEM_EXACT_MASS>
348.125612

> <PUBCHEM_MOLECULAR_FORMULA>
C16H20N4O3S

> <PUBCHEM_MOLECULAR_WEIGHT>
348.42

> <PUBCHEM_OPENEYE_CAN_SMILES>
CC1=CC(=CC=C1)NC2=C(C=NC=C2)S(=O)(=O)NC(=O)NC(C)C

> <PUBCHEM_OPENEYE_ISO_SMILES>
CC1=CC(=CC=C1)NC2=C(C=NC=C2)S(=O)(=O)NC(=O)NC(C)C

> <PUBCHEM_CACTVS_TPSA>
109

> <PUBCHEM_MONOISOTOPIC_WEIGHT>
348.125612

> <PUBCHEM_TOTAL_CHARGE>
0

> <PUBCHEM_HEAVY_ATOM_COUNT>
24

> <PUBCHEM_ATOM_DEF_STEREO_COUNT>
0

> <PUBCHEM_ATOM_UDEF_STEREO_COUNT>
0

> <PUBCHEM_BOND_DEF_STEREO_COUNT>
0

> <PUBCHEM_BOND_UDEF_STEREO_COUNT>
0

> <PUBCHEM_ISOTOPIC_ATOM_COUNT>
0

> <PUBCHEM_COMPONENT_COUNT>
1

> <PUBCHEM_CACTVS_TAUTO_COUNT>
6

> <PUBCHEM_COORDINATE_TYPE>
1
5
255

> <PUBCHEM_BONDANNOTATIONS>
10  11  8
10  16  8
11  17  8
12  18  8
12  20  8
17  21  8
18  19  8
19  22  8
20  23  8
22  23  8
8  16  8
8  21  8

$$$$
