444033
  -OEChem-12171208242D

 83 88  0     1  0  0  0  0  0999 V2000
    9.0594   -0.5867    0.0000 O   0  0  0  0  0  0  0  0  0  0  0  0
    8.4073   -2.0478    0.0000 O   0  0  0  0  0  0  0  0  0  0  0  0
    6.4739    2.6871    0.0000 O   0  0  0  0  0  0  0  0  0  0  0  0
    8.8428    1.2362    0.0000 O   0  0  0  0  0  0  0  0  0  0  0  0
   10.4376    0.7147    0.0000 O   0  0  0  0  0  0  0  0  0  0  0  0
    2.0000    3.3314    0.0000 O   0  0  0  0  0  0  0  0  0  0  0  0
   11.6825   -0.4896    0.0000 O   0  0  0  0  0  0  0  0  0  0  0  0
    7.3399    0.1871    0.0000 C   0  0  1  0  0  0  0  0  0  0  0  0
    6.4739   -0.3129    0.0000 C   0  0  2  0  0  0  0  0  0  0  0  0
    5.6079    0.1871    0.0000 C   0  0  1  0  0  0  0  0  0  0  0  0
    8.0770   -0.4800    0.0000 C   0  0  1  0  0  0  0  0  0  0  0  0
    5.6079    1.1871    0.0000 C   0  0  2  0  0  0  0  0  0  0  0  0
    7.6718   -1.3878    0.0000 C   0  0  1  0  0  0  0  0  0  0  0  0
    6.6831   -1.2848    0.0000 C   0  0  0  0  0  0  0  0  0  0  0  0
    7.3399    1.1871    0.0000 C   0  0  0  0  0  0  0  0  0  0  0  0
    6.4739    1.6871    0.0000 C   0  0  2  0  0  0  0  0  0  0  0  0
    4.7140    1.7217    0.0000 C   0  0  1  0  0  0  0  0  0  0  0  0
    4.7140   -0.3476    0.0000 C   0  0  0  0  0  0  0  0  0  0  0  0
    7.9827    0.9531    0.0000 C   0  0  0  0  0  0  0  0  0  0  0  0
    9.2632   -1.5537    0.0000 C   0  0  3  0  0  0  0  0  0  0  0  0
    8.7722    0.2387    0.0000 C   0  0  0  0  0  0  0  0  0  0  0  0
    3.8079    0.1662    0.0000 C   0  0  0  0  0  0  0  0  0  0  0  0
    3.8079    1.2079    0.0000 C   0  0  0  0  0  0  0  0  0  0  0  0
    5.5838    2.2150    0.0000 C   0  0  0  0  0  0  0  0  0  0  0  0
   10.1763   -1.9612    0.0000 C   0  0  0  0  0  0  0  0  0  0  0  0
    4.7390    2.8064    0.0000 C   0  0  0  0  0  0  0  0  0  0  0  0
    9.7423   -0.0041    0.0000 C   0  0  0  0  0  0  0  0  0  0  0  0
    2.8641    1.7431    0.0000 C   0  0  0  0  0  0  0  0  0  0  0  0
   10.2800   -2.9558    0.0000 C   0  0  0  0  0  0  0  0  0  0  0  0
   10.9859   -1.3741    0.0000 C   0  0  0  0  0  0  0  0  0  0  0  0
    3.8079    3.3633    0.0000 C   0  0  0  0  0  0  0  0  0  0  0  0
    2.8641    2.8281    0.0000 C   0  0  0  0  0  0  0  0  0  0  0  0
   11.1932   -3.3633    0.0000 C   0  0  0  0  0  0  0  0  0  0  0  0
   11.8991   -1.7816    0.0000 C   0  0  0  0  0  0  0  0  0  0  0  0
   12.0027   -2.7763    0.0000 C   0  0  0  0  0  0  0  0  0  0  0  0
   11.4077    0.4719    0.0000 C   0  0  0  0  0  0  0  0  0  0  0  0
   12.1030    1.1907    0.0000 C   0  0  0  0  0  0  0  0  0  0  0  0
   13.0731    0.9479    0.0000 C   0  0  0  0  0  0  0  0  0  0  0  0
   11.8282    2.1522    0.0000 C   0  0  0  0  0  0  0  0  0  0  0  0
    5.7869   -0.8135    0.0000 H   0  0  0  0  0  0  0  0  0  0  0  0
    5.6144   -0.6629    0.0000 H   0  0  0  0  0  0  0  0  0  0  0  0
    6.3440    0.7621    0.0000 H   0  0  0  0  0  0  0  0  0  0  0  0
    7.3271   -2.1648    0.0000 H   0  0  0  0  0  0  0  0  0  0  0  0
    6.0666   -1.3508    0.0000 H   0  0  0  0  0  0  0  0  0  0  0  0
    6.6840   -1.9048    0.0000 H   0  0  0  0  0  0  0  0  0  0  0  0
    7.9505    1.0794    0.0000 H   0  0  0  0  0  0  0  0  0  0  0  0
    7.5520    1.7697    0.0000 H   0  0  0  0  0  0  0  0  0  0  0  0
    7.0108    1.9971    0.0000 H   0  0  0  0  0  0  0  0  0  0  0  0
    4.3203   -0.8266    0.0000 H   0  0  0  0  0  0  0  0  0  0  0  0
    5.1185   -0.8174    0.0000 H   0  0  0  0  0  0  0  0  0  0  0  0
    8.4577    0.5546    0.0000 H   0  0  0  0  0  0  0  0  0  0  0  0
    8.3812    1.4280    0.0000 H   0  0  0  0  0  0  0  0  0  0  0  0
    7.5078    1.3516    0.0000 H   0  0  0  0  0  0  0  0  0  0  0  0
    9.3073   -2.4025    0.0000 H   0  0  0  0  0  0  0  0  0  0  0  0
    3.1970    0.2723    0.0000 H   0  0  0  0  0  0  0  0  0  0  0  0
    3.5988   -0.4175    0.0000 H   0  0  0  0  0  0  0  0  0  0  0  0
    5.8896    1.6757    0.0000 H   0  0  0  0  0  0  0  0  0  0  0  0
    6.1231    2.5209    0.0000 H   0  0  0  0  0  0  0  0  0  0  0  0
    5.2780    2.7543    0.0000 H   0  0  0  0  0  0  0  0  0  0  0  0
   10.1121   -1.3445    0.0000 H   0  0  0  0  0  0  0  0  0  0  0  0
    5.2819    3.1060    0.0000 H   0  0  0  0  0  0  0  0  0  0  0  0
    7.0108    2.9971    0.0000 H   0  0  0  0  0  0  0  0  0  0  0  0
    9.4896   -0.5702    0.0000 H   0  0  0  0  0  0  0  0  0  0  0  0
   10.2560   -0.3512    0.0000 H   0  0  0  0  0  0  0  0  0  0  0  0
    2.3284    1.4310    0.0000 H   0  0  0  0  0  0  0  0  0  0  0  0
    9.6616   -2.9120    0.0000 H   0  0  0  0  0  0  0  0  0  0  0  0
   10.1295   -3.5573    0.0000 H   0  0  0  0  0  0  0  0  0  0  0  0
   11.3330   -0.8604    0.0000 H   0  0  0  0  0  0  0  0  0  0  0  0
   10.5403   -0.9430    0.0000 H   0  0  0  0  0  0  0  0  0  0  0  0
    3.8150    3.9833    0.0000 H   0  0  0  0  0  0  0  0  0  0  0  0
   10.8461   -3.8770    0.0000 H   0  0  0  0  0  0  0  0  0  0  0  0
   11.6388   -3.7944    0.0000 H   0  0  0  0  0  0  0  0  0  0  0  0
   12.5175   -1.8254    0.0000 H   0  0  0  0  0  0  0  0  0  0  0  0
   12.0496   -1.1802    0.0000 H   0  0  0  0  0  0  0  0  0  0  0  0
   12.2740   -3.3337    0.0000 H   0  0  0  0  0  0  0  0  0  0  0  0
   12.5989   -2.6059    0.0000 H   0  0  0  0  0  0  0  0  0  0  0  0
   12.5340    1.6363    0.0000 H   0  0  0  0  0  0  0  0  0  0  0  0
   12.9225    0.3464    0.0000 H   0  0  0  0  0  0  0  0  0  0  0  0
   13.6745    0.7974    0.0000 H   0  0  0  0  0  0  0  0  0  0  0  0
   13.2236    1.5494    0.0000 H   0  0  0  0  0  0  0  0  0  0  0  0
   12.4243    2.3225    0.0000 H   0  0  0  0  0  0  0  0  0  0  0  0
   11.6578    2.7483    0.0000 H   0  0  0  0  0  0  0  0  0  0  0  0
   11.2320    1.9818    0.0000 H   0  0  0  0  0  0  0  0  0  0  0  0
  1 11  1  0  0  0  0
  1 20  1  0  0  0  0
  2 13  1  0  0  0  0
  2 20  1  0  0  0  0
 16  3  1  1  0  0  0
  3 62  1  0  0  0  0
  4 21  2  0  0  0  0
  5 27  1  0  0  0  0
  5 36  1  0  0  0  0
  6 32  2  0  0  0  0
  7 36  2  0  0  0  0
  8  9  1  0  0  0  0
  8 11  1  0  0  0  0
  8 15  1  0  0  0  0
  8 19  1  1  0  0  0
  9 10  1  0  0  0  0
  9 14  1  0  0  0  0
  9 40  1  6  0  0  0
 10 12  1  0  0  0  0
 10 18  1  0  0  0  0
 10 41  1  1  0  0  0
 11 13  1  0  0  0  0
 11 21  1  1  0  0  0
 12 16  1  0  0  0  0
 12 17  1  0  0  0  0
 12 42  1  6  0  0  0
 13 14  1  0  0  0  0
 13 43  1  1  0  0  0
 14 44  1  0  0  0  0
 14 45  1  0  0  0  0
 15 16  1  0  0  0  0
 15 46  1  0  0  0  0
 15 47  1  0  0  0  0
 16 48  1  0  0  0  0
 17 23  1  0  0  0  0
 17 24  1  1  0  0  0
 17 26  1  0  0  0  0
 18 22  1  0  0  0  0
 18 49  1  0  0  0  0
 18 50  1  0  0  0  0
 19 51  1  0  0  0  0
 19 52  1  0  0  0  0
 19 53  1  0  0  0  0
 20 25  1  0  0  0  0
 20 54  1  0  0  0  0
 21 27  1  0  0  0  0
 22 23  1  0  0  0  0
 22 55  1  0  0  0  0
 22 56  1  0  0  0  0
 23 28  2  0  0  0  0
 24 57  1  0  0  0  0
 24 58  1  0  0  0  0
 24 59  1  0  0  0  0
 25 29  1  0  0  0  0
 25 30  1  0  0  0  0
 25 60  1  0  0  0  0
 26 31  2  0  0  0  0
 26 61  1  0  0  0  0
 27 63  1  0  0  0  0
 27 64  1  0  0  0  0
 28 32  1  0  0  0  0
 28 65  1  0  0  0  0
 29 33  1  0  0  0  0
 29 66  1  0  0  0  0
 29 67  1  0  0  0  0
 30 34  1  0  0  0  0
 30 68  1  0  0  0  0
 30 69  1  0  0  0  0
 31 32  1  0  0  0  0
 31 70  1  0  0  0  0
 33 35  1  0  0  0  0
 33 71  1  0  0  0  0
 33 72  1  0  0  0  0
 34 35  1  0  0  0  0
 34 73  1  0  0  0  0
 34 74  1  0  0  0  0
 35 75  1  0  0  0  0
 35 76  1  0  0  0  0
 36 37  1  0  0  0  0
 37 38  1  0  0  0  0
 37 39  1  0  0  0  0
 37 77  1  0  0  0  0
 38 78  1  0  0  0  0
 38 79  1  0  0  0  0
 38 80  1  0  0  0  0
 39 81  1  0  0  0  0
 39 82  1  0  0  0  0
 39 83  1  0  0  0  0
M  END
> <PUBCHEM_COMPOUND_CID>
444033

> <PUBCHEM_COMPOUND_CANONICALIZED>
1

> <PUBCHEM_CACTVS_COMPLEXITY>
1100

> <PUBCHEM_CACTVS_HBOND_ACCEPTOR>
7

> <PUBCHEM_CACTVS_HBOND_DONOR>
1

> <PUBCHEM_CACTVS_ROTATABLE_BOND>
6

> <PUBCHEM_CACTVS_SUBSKEYS>
AAADcfB8OAAAAAAAAAAAAAAAAAAAAaIAAAAwYMEAAAASAGDAAAAAGgAACAAAD1SwgAMCCAAABgCIAqDSCAIAAAAgAAAICAFAAEgREBYAAQQiQAAFoAAOAYPI7PzPgAAAAAAAAADAAAYAADAAAYAADCAAAA==

> <PUBCHEM_IUPAC_INCHI>
InChI=1S/C32H44O7/c1-18(2)28(36)37-17-25(35)32-26(38-29(39-32)19-8-6-5-7-9-19)15-23-22-11-10-20-14-21(33)12-13-30(20,3)27(22)24(34)16-31(23,32)4/h12-14,18-19,22-24,26-27,29,34H,5-11,15-17H2,1-4H3/t22-,23-,24-,26+,27+,29?,30-,31-,32+/m0/s1

> <PUBCHEM_IUPAC_INCHIKEY>
LUKZNWIVRBCLON-FOMURGDPSA-N

> <PUBCHEM_XLOGP3_AA>
5.3

> <PUBCHEM_EXACT_MASS>
540.308704

> <PUBCHEM_MOLECULAR_FORMULA>
C32H44O7

> <PUBCHEM_MOLECULAR_WEIGHT>
540.68756

> <PUBCHEM_OPENEYE_CAN_SMILES>
CC(C)C(=O)OCC(=O)C12C(CC3C1(CC(C4C3CCC5=CC(=O)C=CC45C)O)C)OC(O2)C6CCCCC6

> <PUBCHEM_OPENEYE_ISO_SMILES>
CC(C)C(=O)OCC(=O)[C@@]12[C@@H](C[C@@H]3[C@@]1(C[C@@H]([C@H]4[C@H]3CCC5=CC(=O)C=C[C@]45C)O)C)OC(O2)C6CCCCC6

> <PUBCHEM_CACTVS_TPSA>
99.1

> <PUBCHEM_MONOISOTOPIC_WEIGHT>
540.308704

> <PUBCHEM_TOTAL_CHARGE>
0

> <PUBCHEM_HEAVY_ATOM_COUNT>
39

> <PUBCHEM_ATOM_DEF_STEREO_COUNT>
8

> <PUBCHEM_ATOM_UDEF_STEREO_COUNT>
1

> <PUBCHEM_BOND_DEF_STEREO_COUNT>
0

> <PUBCHEM_BOND_UDEF_STEREO_COUNT>
0

> <PUBCHEM_ISOTOPIC_ATOM_COUNT>
0

> <PUBCHEM_COMPONENT_COUNT>
1

> <PUBCHEM_CACTVS_TAUTO_COUNT>
6

> <PUBCHEM_COORDINATE_TYPE>
1
5
255

> <PUBCHEM_BONDANNOTATIONS>
10  41  5
11  21  5
12  42  6
13  43  5
17  24  5
20  54  3
16  3  5
8  19  5
9  40  6

$$$$
