4473
  -OEChem-12171208082D

 65 67  0     1  0  0  0  0  0999 V2000
    8.0622   -1.1900    0.0000 O   0  0  0  0  0  0  0  0  0  0  0  0
   13.2583   -1.1900    0.0000 O   0  0  0  0  0  0  0  0  0  0  0  0
    8.9282    0.3100    0.0000 O   0  0  0  0  0  0  0  0  0  0  0  0
   12.3923    0.3100    0.0000 O   0  0  0  0  0  0  0  0  0  0  0  0
   12.3923    3.3100    0.0000 O   0  5  0  0  0  0  0  0  0  0  0  0
   13.2583    1.8100    0.0000 O   0  0  0  0  0  0  0  0  0  0  0  0
    5.4641   -0.6900    0.0000 N   0  3  3  0  0  0  0  0  0  0  0  0
   10.6603   -2.6900    0.0000 N   0  0  0  0  0  0  0  0  0  0  0  0
   12.3923    2.3100    0.0000 N   0  3  0  0  0  0  0  0  0  0  0  0
   10.6603   -0.6900    0.0000 C   0  0  3  0  0  0  0  0  0  0  0  0
    9.7942   -1.1900    0.0000 C   0  0  0  0  0  0  0  0  0  0  0  0
    6.3301   -1.1900    0.0000 C   0  0  0  0  0  0  0  0  0  0  0  0
   11.5263   -1.1900    0.0000 C   0  0  0  0  0  0  0  0  0  0  0  0
    4.5981   -0.1900    0.0000 C   0  0  0  0  0  0  0  0  0  0  0  0
   10.6603    0.3100    0.0000 C   0  0  0  0  0  0  0  0  0  0  0  0
    9.7942   -2.1900    0.0000 C   0  0  0  0  0  0  0  0  0  0  0  0
   11.5263   -2.1900    0.0000 C   0  0  0  0  0  0  0  0  0  0  0  0
    7.1962   -0.6900    0.0000 C   0  0  0  0  0  0  0  0  0  0  0  0
    4.9641   -1.5560    0.0000 C   0  0  0  0  0  0  0  0  0  0  0  0
    8.9282   -0.6900    0.0000 C   0  0  0  0  0  0  0  0  0  0  0  0
    3.7320   -0.6900    0.0000 C   0  0  0  0  0  0  0  0  0  0  0  0
   11.5263    0.8100    0.0000 C   0  0  0  0  0  0  0  0  0  0  0  0
    8.9282   -2.6900    0.0000 C   0  0  0  0  0  0  0  0  0  0  0  0
    9.7942    0.8100    0.0000 C   0  0  0  0  0  0  0  0  0  0  0  0
   12.3923   -0.6900    0.0000 C   0  0  0  0  0  0  0  0  0  0  0  0
   12.3923   -2.6900    0.0000 C   0  0  0  0  0  0  0  0  0  0  0  0
   11.5263    1.8100    0.0000 C   0  0  0  0  0  0  0  0  0  0  0  0
    9.7942    1.8100    0.0000 C   0  0  0  0  0  0  0  0  0  0  0  0
    2.8660   -0.1900    0.0000 C   0  0  0  0  0  0  0  0  0  0  0  0
    3.7320   -1.6900    0.0000 C   0  0  0  0  0  0  0  0  0  0  0  0
   10.6603    2.3100    0.0000 C   0  0  0  0  0  0  0  0  0  0  0  0
    2.0000   -0.6900    0.0000 C   0  0  0  0  0  0  0  0  0  0  0  0
    2.8660   -2.1900    0.0000 C   0  0  0  0  0  0  0  0  0  0  0  0
    2.0000   -1.6900    0.0000 C   0  0  0  0  0  0  0  0  0  0  0  0
   14.1244   -0.6900    0.0000 C   0  0  0  0  0  0  0  0  0  0  0  0
   11.3964   -0.2650    0.0000 H   0  0  0  0  0  0  0  0  0  0  0  0
    5.7741   -0.1531    0.0000 H   0  0  0  0  0  0  0  0  0  0  0  0
    5.9316   -1.6650    0.0000 H   0  0  0  0  0  0  0  0  0  0  0  0
    6.7287   -1.6650    0.0000 H   0  0  0  0  0  0  0  0  0  0  0  0
    4.9966    0.2849    0.0000 H   0  0  0  0  0  0  0  0  0  0  0  0
    4.1996    0.2849    0.0000 H   0  0  0  0  0  0  0  0  0  0  0  0
    7.5947   -0.2151    0.0000 H   0  0  0  0  0  0  0  0  0  0  0  0
    6.7976   -0.2151    0.0000 H   0  0  0  0  0  0  0  0  0  0  0  0
   10.6603   -3.3100    0.0000 H   0  0  0  0  0  0  0  0  0  0  0  0
    4.4272   -1.2460    0.0000 H   0  0  0  0  0  0  0  0  0  0  0  0
    4.6541   -2.0930    0.0000 H   0  0  0  0  0  0  0  0  0  0  0  0
    5.5010   -1.8660    0.0000 H   0  0  0  0  0  0  0  0  0  0  0  0
   12.0632    0.5000    0.0000 H   0  0  0  0  0  0  0  0  0  0  0  0
    8.6182   -2.1531    0.0000 H   0  0  0  0  0  0  0  0  0  0  0  0
    8.3913   -3.0000    0.0000 H   0  0  0  0  0  0  0  0  0  0  0  0
    9.2382   -3.2269    0.0000 H   0  0  0  0  0  0  0  0  0  0  0  0
    9.2573    0.5000    0.0000 H   0  0  0  0  0  0  0  0  0  0  0  0
   12.0823   -3.2269    0.0000 H   0  0  0  0  0  0  0  0  0  0  0  0
   12.9292   -3.0000    0.0000 H   0  0  0  0  0  0  0  0  0  0  0  0
   12.7023   -2.1531    0.0000 H   0  0  0  0  0  0  0  0  0  0  0  0
    9.2573    2.1200    0.0000 H   0  0  0  0  0  0  0  0  0  0  0  0
    2.8660    0.4300    0.0000 H   0  0  0  0  0  0  0  0  0  0  0  0
    4.2690   -2.0000    0.0000 H   0  0  0  0  0  0  0  0  0  0  0  0
   10.6603    2.9300    0.0000 H   0  0  0  0  0  0  0  0  0  0  0  0
    1.4631   -0.3800    0.0000 H   0  0  0  0  0  0  0  0  0  0  0  0
    2.8660   -2.8100    0.0000 H   0  0  0  0  0  0  0  0  0  0  0  0
    1.4631   -2.0000    0.0000 H   0  0  0  0  0  0  0  0  0  0  0  0
   14.4344   -1.2269    0.0000 H   0  0  0  0  0  0  0  0  0  0  0  0
   14.6613   -0.3800    0.0000 H   0  0  0  0  0  0  0  0  0  0  0  0
   13.8144   -0.1531    0.0000 H   0  0  0  0  0  0  0  0  0  0  0  0
  1 18  1  0  0  0  0
  1 20  1  0  0  0  0
  2 25  1  0  0  0  0
  2 35  1  0  0  0  0
  3 20  2  0  0  0  0
  4 25  2  0  0  0  0
  5  9  1  0  0  0  0
  6  9  2  0  0  0  0
  7 12  1  0  0  0  0
  7 14  1  0  0  0  0
  7 19  1  0  0  0  0
  7 37  1  0  0  0  0
  8 16  1  0  0  0  0
  8 17  1  0  0  0  0
  8 44  1  0  0  0  0
  9 27  1  0  0  0  0
 10 11  1  0  0  0  0
 10 13  1  0  0  0  0
 10 15  1  0  0  0  0
 10 36  1  0  0  0  0
 11 16  2  0  0  0  0
 11 20  1  0  0  0  0
 12 18  1  0  0  0  0
 12 38  1  0  0  0  0
 12 39  1  0  0  0  0
 13 17  2  0  0  0  0
 13 25  1  0  0  0  0
 14 21  1  0  0  0  0
 14 40  1  0  0  0  0
 14 41  1  0  0  0  0
 15 22  2  0  0  0  0
 15 24  1  0  0  0  0
 16 23  1  0  0  0  0
 17 26  1  0  0  0  0
 18 42  1  0  0  0  0
 18 43  1  0  0  0  0
 19 45  1  0  0  0  0
 19 46  1  0  0  0  0
 19 47  1  0  0  0  0
 21 29  2  0  0  0  0
 21 30  1  0  0  0  0
 22 27  1  0  0  0  0
 22 48  1  0  0  0  0
 23 49  1  0  0  0  0
 23 50  1  0  0  0  0
 23 51  1  0  0  0  0
 24 28  2  0  0  0  0
 24 52  1  0  0  0  0
 26 53  1  0  0  0  0
 26 54  1  0  0  0  0
 26 55  1  0  0  0  0
 27 31  2  0  0  0  0
 28 31  1  0  0  0  0
 28 56  1  0  0  0  0
 29 32  1  0  0  0  0
 29 57  1  0  0  0  0
 30 33  2  0  0  0  0
 30 58  1  0  0  0  0
 31 59  1  0  0  0  0
 32 34  2  0  0  0  0
 32 60  1  0  0  0  0
 33 34  1  0  0  0  0
 33 61  1  0  0  0  0
 34 62  1  0  0  0  0
 35 63  1  0  0  0  0
 35 64  1  0  0  0  0
 35 65  1  0  0  0  0
M  CHG  3   5  -1   7   1   9   1
M  END
> <PUBCHEM_COMPOUND_CID>
4473

> <PUBCHEM_COMPOUND_CANONICALIZED>
1

> <PUBCHEM_CACTVS_COMPLEXITY>
856

> <PUBCHEM_CACTVS_HBOND_ACCEPTOR>
7

> <PUBCHEM_CACTVS_HBOND_DONOR>
2

> <PUBCHEM_CACTVS_ROTATABLE_BOND>
10

> <PUBCHEM_CACTVS_SUBSKEYS>
AAADceB7OAAAAAAAAAAAAAAAAAAAAAAAAAAwYIAAAAAAAAABQAAAHgAUAAAADQjhmAYyyIPQRACJAiTSSwCCAAAgAgAoiIEIZMoKJDKAsZGHMAhkkACY6UeY7uiOgAAAQAAAAAAAAACAAAAAAAAAAAAAAA==

> <PUBCHEM_IUPAC_OPENEYE_NAME>
benzyl-[2-[5-methoxycarbonyl-2,6-dimethyl-4-(3-nitrophenyl)-1,4-dihydropyridine-3-carbonyl]oxyethyl]-methyl-ammonium

> <PUBCHEM_IUPAC_CAS_NAME>
2-[[5-methoxycarbonyl-2,6-dimethyl-4-(3-nitrophenyl)-1,4-dihydropyridin-3-yl]-oxomethoxy]ethyl-methyl-(phenylmethyl)ammonium

> <PUBCHEM_IUPAC_NAME>
benzyl-[2-[5-methoxycarbonyl-2,6-dimethyl-4-(3-nitrophenyl)-1,4-dihydropyridine-3-carbonyl]oxyethyl]-methylazanium

> <PUBCHEM_IUPAC_SYSTEMATIC_NAME>
2-[[5-methoxycarbonyl-2,6-dimethyl-4-(3-nitrophenyl)-1,4-dihydropyridin-3-yl]carbonyloxy]ethyl-methyl-(phenylmethyl)azanium

> <PUBCHEM_IUPAC_TRADITIONAL_NAME>
benzyl-[2-[5-carbomethoxy-2,6-dimethyl-4-(3-nitrophenyl)-1,4-dihydropyridine-3-carbonyl]oxyethyl]-methyl-ammonium

> <PUBCHEM_IUPAC_INCHI>
InChI=1S/C26H29N3O6/c1-17-22(25(30)34-4)24(20-11-8-12-21(15-20)29(32)33)23(18(2)27-17)26(31)35-14-13-28(3)16-19-9-6-5-7-10-19/h5-12,15,24,27H,13-14,16H2,1-4H3/p+1

> <PUBCHEM_IUPAC_INCHIKEY>
ZBBHBTPTTSWHBA-UHFFFAOYSA-O

> <PUBCHEM_XLOGP3>
3.8

> <PUBCHEM_EXACT_MASS>
480.213461

> <PUBCHEM_MOLECULAR_FORMULA>
C26H30N3O6+

> <PUBCHEM_MOLECULAR_WEIGHT>
480.5329

> <PUBCHEM_OPENEYE_CAN_SMILES>
CC1=C(C(C(=C(N1)C)C(=O)OCC[NH+](C)CC2=CC=CC=C2)C3=CC(=CC=C3)[N+](=O)[O-])C(=O)OC

> <PUBCHEM_OPENEYE_ISO_SMILES>
CC1=C(C(C(=C(N1)C)C(=O)OCC[NH+](C)CC2=CC=CC=C2)C3=CC(=CC=C3)[N+](=O)[O-])C(=O)OC

> <PUBCHEM_CACTVS_TPSA>
115

> <PUBCHEM_MONOISOTOPIC_WEIGHT>
480.213461

> <PUBCHEM_TOTAL_CHARGE>
1

> <PUBCHEM_HEAVY_ATOM_COUNT>
35

> <PUBCHEM_ATOM_DEF_STEREO_COUNT>
0

> <PUBCHEM_ATOM_UDEF_STEREO_COUNT>
1

> <PUBCHEM_BOND_DEF_STEREO_COUNT>
0

> <PUBCHEM_BOND_UDEF_STEREO_COUNT>
0

> <PUBCHEM_ISOTOPIC_ATOM_COUNT>
0

> <PUBCHEM_COMPONENT_COUNT>
1

> <PUBCHEM_CACTVS_TAUTO_COUNT>
5

> <PUBCHEM_COORDINATE_TYPE>
1
5
255

> <PUBCHEM_BONDANNOTATIONS>
10  36  3
15  22  8
15  24  8
21  29  8
21  30  8
22  27  8
24  28  8
27  31  8
28  31  8
29  32  8
30  33  8
32  34  8
33  34  8

$$$$
