450096
  -OEChem-12171208242D

 71 70  0     1  0  0  0  0  0999 V2000
   10.3312    4.8700    0.0000 Gd  0  1  0  0  0  0  0  0  0  0  0  0
    6.5991    4.6200    0.0000 O   0  0  0  0  0  0  0  0  0  0  0  0
    0.5369    8.1200    0.0000 O   0  0  0  0  0  0  0  0  0  0  0  0
    4.8671    9.6200    0.0000 O   0  0  0  0  0  0  0  0  0  0  0  0
    4.8671    4.6200    0.0000 O   0  0  0  0  0  0  0  0  0  0  0  0
    3.1350    9.6200    0.0000 O   0  0  0  0  0  0  0  0  0  0  0  0
    1.4030    6.6200    0.0000 O   0  0  0  0  0  0  0  0  0  0  0  0
    2.2690    2.1200    0.0000 O   0  0  0  0  0  0  0  0  0  0  0  0
    8.3312    6.6200    0.0000 O   0  0  0  0  0  0  0  0  0  0  0  0
    8.3312    9.6200    0.0000 O   0  0  0  0  0  0  0  0  0  0  0  0
    6.5991    9.6200    0.0000 O   0  0  0  0  0  0  0  0  0  0  0  0
    7.4651    5.1200    0.0000 O   0  0  0  0  0  0  0  0  0  0  0  0
    4.8671    6.6200    0.0000 N   0  0  3  0  0  0  0  0  0  0  0  0
    3.1350    7.6200    0.0000 N   0  0  0  0  0  0  0  0  0  0  0  0
    6.5991    7.6200    0.0000 N   0  0  0  0  0  0  0  0  0  0  0  0
    3.1350    6.6200    0.0000 C   0  0  3  0  0  0  0  0  0  0  0  0
    4.0010    6.1200    0.0000 C   0  0  0  0  0  0  0  0  0  0  0  0
    2.2690    6.1200    0.0000 C   0  0  0  0  0  0  0  0  0  0  0  0
    4.8671    7.6200    0.0000 C   0  0  0  0  0  0  0  0  0  0  0  0
    5.7331    8.1200    0.0000 C   0  0  0  0  0  0  0  0  0  0  0  0
    5.7331    6.1200    0.0000 C   0  0  0  0  0  0  0  0  0  0  0  0
    4.0010    8.1200    0.0000 C   0  0  0  0  0  0  0  0  0  0  0  0
    2.2690    8.1200    0.0000 C   0  0  0  0  0  0  0  0  0  0  0  0
    2.2690    5.1200    0.0000 C   0  0  0  0  0  0  0  0  0  0  0  0
    1.4030    4.6200    0.0000 C   0  0  0  0  0  0  0  0  0  0  0  0
    3.1350    4.6200    0.0000 C   0  0  0  0  0  0  0  0  0  0  0  0
    5.7331    5.1200    0.0000 C   0  0  0  0  0  0  0  0  0  0  0  0
    7.4651    8.1200    0.0000 C   0  0  0  0  0  0  0  0  0  0  0  0
    6.5991    6.6200    0.0000 C   0  0  0  0  0  0  0  0  0  0  0  0
    4.0010    9.1200    0.0000 C   0  0  0  0  0  0  0  0  0  0  0  0
    1.4030    7.6200    0.0000 C   0  0  0  0  0  0  0  0  0  0  0  0
    1.4030    3.6200    0.0000 C   0  0  0  0  0  0  0  0  0  0  0  0
    3.1350    3.6200    0.0000 C   0  0  0  0  0  0  0  0  0  0  0  0
    2.2690    3.1200    0.0000 C   0  0  0  0  0  0  0  0  0  0  0  0
    7.4651    9.1200    0.0000 C   0  0  0  0  0  0  0  0  0  0  0  0
    7.4651    6.1200    0.0000 C   0  0  0  0  0  0  0  0  0  0  0  0
    1.4030    1.6200    0.0000 C   0  0  0  0  0  0  0  0  0  0  0  0
    1.4030    0.6200    0.0000 C   0  0  0  0  0  0  0  0  0  0  0  0
    3.6720    6.9300    0.0000 H   0  0  0  0  0  0  0  0  0  0  0  0
    3.6025    5.6450    0.0000 H   0  0  0  0  0  0  0  0  0  0  0  0
    4.3996    5.6450    0.0000 H   0  0  0  0  0  0  0  0  0  0  0  0
    2.0569    6.7026    0.0000 H   0  0  0  0  0  0  0  0  0  0  0  0
    1.6584    6.0123    0.0000 H   0  0  0  0  0  0  0  0  0  0  0  0
    4.6550    8.2026    0.0000 H   0  0  0  0  0  0  0  0  0  0  0  0
    4.2565    7.5123    0.0000 H   0  0  0  0  0  0  0  0  0  0  0  0
    6.1316    8.5950    0.0000 H   0  0  0  0  0  0  0  0  0  0  0  0
    5.3346    8.5950    0.0000 H   0  0  0  0  0  0  0  0  0  0  0  0
    6.3437    6.0123    0.0000 H   0  0  0  0  0  0  0  0  0  0  0  0
    5.9451    6.7026    0.0000 H   0  0  0  0  0  0  0  0  0  0  0  0
    4.2131    7.5374    0.0000 H   0  0  0  0  0  0  0  0  0  0  0  0
    4.6116    8.2277    0.0000 H   0  0  0  0  0  0  0  0  0  0  0  0
    2.6675    8.5950    0.0000 H   0  0  0  0  0  0  0  0  0  0  0  0
    1.8705    8.5950    0.0000 H   0  0  0  0  0  0  0  0  0  0  0  0
    0.8660    4.9300    0.0000 H   0  0  0  0  0  0  0  0  0  0  0  0
    3.6720    4.9300    0.0000 H   0  0  0  0  0  0  0  0  0  0  0  0
    7.6772    7.5374    0.0000 H   0  0  0  0  0  0  0  0  0  0  0  0
    8.0757    8.2277    0.0000 H   0  0  0  0  0  0  0  0  0  0  0  0
    5.9885    6.7277    0.0000 H   0  0  0  0  0  0  0  0  0  0  0  0
    6.3871    6.0374    0.0000 H   0  0  0  0  0  0  0  0  0  0  0  0
    0.8660    3.3100    0.0000 H   0  0  0  0  0  0  0  0  0  0  0  0
    3.6720    3.3100    0.0000 H   0  0  0  0  0  0  0  0  0  0  0  0
    6.5991    4.0000    0.0000 H   0  0  0  0  0  0  0  0  0  0  0  0
    4.8671   10.2400    0.0000 H   0  0  0  0  0  0  0  0  0  0  0  0
    0.0000    7.8100    0.0000 H   0  0  0  0  0  0  0  0  0  0  0  0
    1.1909    2.2026    0.0000 H   0  0  0  0  0  0  0  0  0  0  0  0
    0.7924    1.5123    0.0000 H   0  0  0  0  0  0  0  0  0  0  0  0
    8.3312   10.2400    0.0000 H   0  0  0  0  0  0  0  0  0  0  0  0
    8.3312    7.2400    0.0000 H   0  0  0  0  0  0  0  0  0  0  0  0
    0.7830    0.6200    0.0000 H   0  0  0  0  0  0  0  0  0  0  0  0
    1.4030    0.0000    0.0000 H   0  0  0  0  0  0  0  0  0  0  0  0
    2.0230    0.6200    0.0000 H   0  0  0  0  0  0  0  0  0  0  0  0
  2 27  1  0  0  0  0
  2 62  1  0  0  0  0
  3 31  1  0  0  0  0
  3 64  1  0  0  0  0
  4 30  1  0  0  0  0
  4 63  1  0  0  0  0
  5 27  2  0  0  0  0
  6 30  2  0  0  0  0
  7 31  2  0  0  0  0
  8 34  1  0  0  0  0
  8 37  1  0  0  0  0
  9 36  1  0  0  0  0
  9 68  1  0  0  0  0
 10 35  1  0  0  0  0
 10 67  1  0  0  0  0
 11 35  2  0  0  0  0
 12 36  2  0  0  0  0
 13 17  1  0  0  0  0
 13 19  1  0  0  0  0
 13 21  1  0  0  0  0
 14 16  1  0  0  0  0
 14 22  1  0  0  0  0
 14 23  1  0  0  0  0
 15 20  1  0  0  0  0
 15 28  1  0  0  0  0
 15 29  1  0  0  0  0
 16 17  1  0  0  0  0
 16 18  1  0  0  0  0
 16 39  1  0  0  0  0
 17 40  1  0  0  0  0
 17 41  1  0  0  0  0
 18 24  1  0  0  0  0
 18 42  1  0  0  0  0
 18 43  1  0  0  0  0
 19 20  1  0  0  0  0
 19 44  1  0  0  0  0
 19 45  1  0  0  0  0
 20 46  1  0  0  0  0
 20 47  1  0  0  0  0
 21 27  1  0  0  0  0
 21 48  1  0  0  0  0
 21 49  1  0  0  0  0
 22 30  1  0  0  0  0
 22 50  1  0  0  0  0
 22 51  1  0  0  0  0
 23 31  1  0  0  0  0
 23 52  1  0  0  0  0
 23 53  1  0  0  0  0
 24 25  2  0  0  0  0
 24 26  1  0  0  0  0
 25 32  1  0  0  0  0
 25 54  1  0  0  0  0
 26 33  2  0  0  0  0
 26 55  1  0  0  0  0
 28 35  1  0  0  0  0
 28 56  1  0  0  0  0
 28 57  1  0  0  0  0
 29 36  1  0  0  0  0
 29 58  1  0  0  0  0
 29 59  1  0  0  0  0
 32 34  2  0  0  0  0
 32 60  1  0  0  0  0
 33 34  1  0  0  0  0
 33 61  1  0  0  0  0
 37 38  1  0  0  0  0
 37 65  1  0  0  0  0
 37 66  1  0  0  0  0
 38 69  1  0  0  0  0
 38 70  1  0  0  0  0
 38 71  1  0  0  0  0
M  CHG  1   1   3
M  END
> <PUBCHEM_COMPOUND_CID>
450096

> <PUBCHEM_COMPOUND_CANONICALIZED>
1

> <PUBCHEM_CACTVS_COMPLEXITY>
739

> <PUBCHEM_CACTVS_HBOND_ACCEPTOR>
14

> <PUBCHEM_CACTVS_HBOND_DONOR>
5

> <PUBCHEM_CACTVS_ROTATABLE_BOND>
20

> <PUBCHEM_CACTVS_SUBSKEYS>
AAADcfB7PAAAAAAAAAAAAAAgAAAAAAAAAAAwAAAAAAAAAAABAAAAHgAACAAADCzhmAYyDoMABgCIAiDSCAACCAAgIAAIiACOCIgOZiKEsTuWOCCkwBGYqAeQwKAOIAAAAAAAAABAAAAAAAAAAAAAAAAAAA==

> <PUBCHEM_IUPAC_OPENEYE_NAME>
2-[[2-[bis(carboxymethyl)amino]-3-(4-ethoxyphenyl)propyl]-[2-[bis(carboxymethyl)amino]ethyl]amino]acetic acid;gadolinium(3+)

> <PUBCHEM_IUPAC_CAS_NAME>
2-[[2-[bis(carboxymethyl)amino]-3-(4-ethoxyphenyl)propyl]-[2-[bis(carboxymethyl)amino]ethyl]amino]acetic acid;gadolinium(3+)

> <PUBCHEM_IUPAC_NAME>
2-[[2-[bis(carboxymethyl)amino]-3-(4-ethoxyphenyl)propyl]-[2-[bis(carboxymethyl)amino]ethyl]amino]acetic acid;gadolinium(3+)

> <PUBCHEM_IUPAC_SYSTEMATIC_NAME>
2-[[2-[bis(2-hydroxy-2-oxoethyl)amino]-3-(4-ethoxyphenyl)propyl]-[2-[bis(2-hydroxy-2-oxoethyl)amino]ethyl]amino]ethanoic acid;gadolinium(3+)

> <PUBCHEM_IUPAC_TRADITIONAL_NAME>
2-[2-[bis(carboxymethyl)amino]ethyl-[2-[bis(carboxymethyl)amino]-3-p-phenetyl-propyl]amino]acetic acid;gadolinium(3+)

> <PUBCHEM_IUPAC_INCHI>
InChI=1S/C23H33N3O11.Gd/c1-2-37-18-5-3-16(4-6-18)9-17(26(14-22(33)34)15-23(35)36)10-24(11-19(27)28)7-8-25(12-20(29)30)13-21(31)32;/h3-6,17H,2,7-15H2,1H3,(H,27,28)(H,29,30)(H,31,32)(H,33,34)(H,35,36);/q;+3

> <PUBCHEM_IUPAC_INCHIKEY>
PCZHWPSNPWAQNF-UHFFFAOYSA-N

> <PUBCHEM_EXACT_MASS>
685.135613

> <PUBCHEM_MOLECULAR_FORMULA>
C23H33GdN3O11+3

> <PUBCHEM_MOLECULAR_WEIGHT>
684.77162

> <PUBCHEM_OPENEYE_CAN_SMILES>
CCOC1=CC=C(C=C1)CC(CN(CCN(CC(=O)O)CC(=O)O)CC(=O)O)N(CC(=O)O)CC(=O)O.[Gd+3]

> <PUBCHEM_OPENEYE_ISO_SMILES>
CCOC1=CC=C(C=C1)CC(CN(CCN(CC(=O)O)CC(=O)O)CC(=O)O)N(CC(=O)O)CC(=O)O.[Gd+3]

> <PUBCHEM_CACTVS_TPSA>
205

> <PUBCHEM_MONOISOTOPIC_WEIGHT>
685.135613

> <PUBCHEM_TOTAL_CHARGE>
3

> <PUBCHEM_HEAVY_ATOM_COUNT>
38

> <PUBCHEM_ATOM_DEF_STEREO_COUNT>
0

> <PUBCHEM_ATOM_UDEF_STEREO_COUNT>
1

> <PUBCHEM_BOND_DEF_STEREO_COUNT>
0

> <PUBCHEM_BOND_UDEF_STEREO_COUNT>
0

> <PUBCHEM_ISOTOPIC_ATOM_COUNT>
0

> <PUBCHEM_COMPONENT_COUNT>
2

> <PUBCHEM_CACTVS_TAUTO_COUNT>
1

> <PUBCHEM_COORDINATE_TYPE>
1
5
255

> <PUBCHEM_BONDANNOTATIONS>
16  18  3
24  25  8
24  26  8
25  32  8
26  33  8
32  34  8
33  34  8

$$$$
