4666
  -OEChem-12171208092D

113119  0     1  0  0  0  0  0999 V2000
    5.1483   -5.5682    0.0000 O   0  0  0  0  0  0  0  0  0  0  0  0
    6.3053   -4.3057    0.0000 O   0  0  0  0  0  0  0  0  0  0  0  0
    7.0654   -2.9424    0.0000 O   0  0  0  0  0  0  0  0  0  0  0  0
    7.4821   -1.7597    0.0000 O   0  0  0  0  0  0  0  0  0  0  0  0
    2.4962   -2.9115    0.0000 O   0  0  0  0  0  0  0  0  0  0  0  0
    3.5446   -0.1287    0.0000 O   0  0  0  0  0  0  0  0  0  0  0  0
    2.8690   -1.7597    0.0000 O   0  0  0  0  0  0  0  0  0  0  0  0
    7.5875    0.6523    0.0000 O   0  0  0  0  0  0  0  0  0  0  0  0
    7.5913   -5.4660    0.0000 O   0  0  0  0  0  0  0  0  0  0  0  0
    7.5138   -4.6154    0.0000 O   0  0  0  0  0  0  0  0  0  0  0  0
    4.7693    1.0960    0.0000 O   0  0  0  0  0  0  0  0  0  0  0  0
    6.3628    1.8770    0.0000 O   0  0  0  0  0  0  0  0  0  0  0  0
    9.0017    2.0665    0.0000 O   0  0  0  0  0  0  0  0  0  0  0  0
    7.2593    5.2231    0.0000 O   0  0  0  0  0  0  0  0  0  0  0  0
    6.8110    3.5500    0.0000 N   0  0  0  0  0  0  0  0  0  0  0  0
    5.1755   -3.0663    0.0000 C   0  0  3  0  0  0  0  0  0  0  0  0
    5.3274   -4.0968    0.0000 C   0  0  3  0  0  0  0  0  0  0  0  0
    4.2517   -2.6836    0.0000 C   0  0  3  0  0  0  0  0  0  0  0  0
    4.5059   -4.7372    0.0000 C   0  0  3  0  0  0  0  0  0  0  0  0
    6.0994   -2.6836    0.0000 C   0  0  3  0  0  0  0  0  0  0  0  0
    6.4821   -1.7597    0.0000 C   0  0  3  0  0  0  0  0  0  0  0  0
    3.4156   -3.3049    0.0000 C   0  0  3  0  0  0  0  0  0  0  0  0
    3.5436   -4.3386    0.0000 C   0  0  0  0  0  0  0  0  0  0  0  0
    6.0994   -0.8358    0.0000 C   0  0  0  0  0  0  0  0  0  0  0  0
    5.9766   -4.9224    0.0000 C   0  0  0  0  0  0  0  0  0  0  0  0
    3.8690   -1.7597    0.0000 C   0  0  0  0  0  0  0  0  0  0  0  0
    7.1552   -1.0180    0.0000 C   0  0  0  0  0  0  0  0  0  0  0  0
    5.1755   -0.4532    0.0000 C   0  0  0  0  0  0  0  0  0  0  0  0
    3.3278   -2.3009    0.0000 C   0  0  0  0  0  0  0  0  0  0  0  0
    4.2517   -0.8358    0.0000 C   0  0  3  0  0  0  0  0  0  0  0  0
    6.8804   -0.0549    0.0000 C   0  0  3  0  0  0  0  0  0  0  0  0
    5.9172    0.2200    0.0000 C   0  0  0  0  0  0  0  0  0  0  0  0
    6.3971    0.2750    0.0000 C   0  0  0  0  0  0  0  0  0  0  0  0
    7.2102   -0.5382    0.0000 C   0  0  0  0  0  0  0  0  0  0  0  0
    5.6897    1.1937    0.0000 C   0  0  0  0  0  0  0  0  0  0  0  0
    6.6134   -5.2571    0.0000 C   0  0  0  0  0  0  0  0  0  0  0  0
    7.7724   -3.6495    0.0000 C   0  0  0  0  0  0  0  0  0  0  0  0
    5.9435   -5.9995    0.0000 C   0  0  0  0  0  0  0  0  0  0  0  0
    3.8034    0.8372    0.0000 C   0  0  0  0  0  0  0  0  0  0  0  0
    7.3287    1.6182    0.0000 C   0  0  0  0  0  0  0  0  0  0  0  0
    8.7384   -3.3907    0.0000 C   0  0  0  0  0  0  0  0  0  0  0  0
    8.0358    2.3253    0.0000 C   0  0  3  0  0  0  0  0  0  0  0  0
    3.0963    1.5443    0.0000 C   0  0  0  0  0  0  0  0  0  0  0  0
    8.9972   -2.4248    0.0000 C   0  0  0  0  0  0  0  0  0  0  0  0
    9.4455   -4.0978    0.0000 C   0  0  0  0  0  0  0  0  0  0  0  0
    7.7770    3.2912    0.0000 C   0  0  3  0  0  0  0  0  0  0  0  0
    9.9631   -2.1660    0.0000 C   0  0  0  0  0  0  0  0  0  0  0  0
   10.4114   -3.8390    0.0000 C   0  0  0  0  0  0  0  0  0  0  0  0
   10.6702   -2.8731    0.0000 C   0  0  0  0  0  0  0  0  0  0  0  0
    8.4841    3.9983    0.0000 C   0  0  0  0  0  0  0  0  0  0  0  0
    9.4500    3.7395    0.0000 C   0  0  0  0  0  0  0  0  0  0  0  0
    8.2253    4.9642    0.0000 C   0  0  0  0  0  0  0  0  0  0  0  0
    6.5522    4.5160    0.0000 C   0  0  0  0  0  0  0  0  0  0  0  0
   10.1571    4.4466    0.0000 C   0  0  0  0  0  0  0  0  0  0  0  0
    8.9324    5.6714    0.0000 C   0  0  0  0  0  0  0  0  0  0  0  0
    5.5863    4.7748    0.0000 C   0  0  0  0  0  0  0  0  0  0  0  0
    9.8983    5.4125    0.0000 C   0  0  0  0  0  0  0  0  0  0  0  0
    5.3275    5.7407    0.0000 C   0  0  0  0  0  0  0  0  0  0  0  0
    4.8792    4.0677    0.0000 C   0  0  0  0  0  0  0  0  0  0  0  0
    4.3616    5.9995    0.0000 C   0  0  0  0  0  0  0  0  0  0  0  0
    3.9133    4.3265    0.0000 C   0  0  0  0  0  0  0  0  0  0  0  0
    3.6545    5.2924    0.0000 C   0  0  0  0  0  0  0  0  0  0  0  0
    5.9149   -3.4856    0.0000 H   0  0  0  0  0  0  0  0  0  0  0  0
    3.9897   -5.4125    0.0000 H   0  0  0  0  0  0  0  0  0  0  0  0
    6.1550   -3.5318    0.0000 H   0  0  0  0  0  0  0  0  0  0  0  0
    3.3160   -2.4607    0.0000 H   0  0  0  0  0  0  0  0  0  0  0  0
    2.9243   -4.3084    0.0000 H   0  0  0  0  0  0  0  0  0  0  0  0
    3.4078   -4.9436    0.0000 H   0  0  0  0  0  0  0  0  0  0  0  0
    6.3585   -5.4108    0.0000 H   0  0  0  0  0  0  0  0  0  0  0  0
    6.4645   -4.5398    0.0000 H   0  0  0  0  0  0  0  0  0  0  0  0
    7.5297   -1.5121    0.0000 H   0  0  0  0  0  0  0  0  0  0  0  0
    7.7099   -0.7410    0.0000 H   0  0  0  0  0  0  0  0  0  0  0  0
    3.5650   -1.7281    0.0000 H   0  0  0  0  0  0  0  0  0  0  0  0
    2.7550   -2.0636    0.0000 H   0  0  0  0  0  0  0  0  0  0  0  0
    3.0905   -2.8737    0.0000 H   0  0  0  0  0  0  0  0  0  0  0  0
    4.4175   -0.0022    0.0000 H   0  0  0  0  0  0  0  0  0  0  0  0
    7.7032   -0.2682    0.0000 H   0  0  0  0  0  0  0  0  0  0  0  0
    6.9959    0.1145    0.0000 H   0  0  0  0  0  0  0  0  0  0  0  0
    6.5575    0.8739    0.0000 H   0  0  0  0  0  0  0  0  0  0  0  0
    5.7982    0.4354    0.0000 H   0  0  0  0  0  0  0  0  0  0  0  0
    7.3707   -1.1371    0.0000 H   0  0  0  0  0  0  0  0  0  0  0  0
    7.8091   -0.3777    0.0000 H   0  0  0  0  0  0  0  0  0  0  0  0
    7.0498    0.0607    0.0000 H   0  0  0  0  0  0  0  0  0  0  0  0
    7.7921   -1.2228    0.0000 H   0  0  0  0  0  0  0  0  0  0  0  0
    2.0000   -3.2833    0.0000 H   0  0  0  0  0  0  0  0  0  0  0  0
    6.2935    1.3348    0.0000 H   0  0  0  0  0  0  0  0  0  0  0  0
    5.5487    1.7975    0.0000 H   0  0  0  0  0  0  0  0  0  0  0  0
    5.0860    1.0527    0.0000 H   0  0  0  0  0  0  0  0  0  0  0  0
    5.4832   -5.5842    0.0000 H   0  0  0  0  0  0  0  0  0  0  0  0
    5.5282   -6.4598    0.0000 H   0  0  0  0  0  0  0  0  0  0  0  0
    6.4038   -6.4149    0.0000 H   0  0  0  0  0  0  0  0  0  0  0  0
    8.6368    2.9263    0.0000 H   0  0  0  0  0  0  0  0  0  0  0  0
    3.5347    1.9827    0.0000 H   0  0  0  0  0  0  0  0  0  0  0  0
    2.6579    1.9827    0.0000 H   0  0  0  0  0  0  0  0  0  0  0  0
    2.6579    1.1059    0.0000 H   0  0  0  0  0  0  0  0  0  0  0  0
    8.5588   -1.9864    0.0000 H   0  0  0  0  0  0  0  0  0  0  0  0
    9.2850   -4.6967    0.0000 H   0  0  0  0  0  0  0  0  0  0  0  0
    7.5570    4.1123    0.0000 H   0  0  0  0  0  0  0  0  0  0  0  0
   10.1236   -1.5671    0.0000 H   0  0  0  0  0  0  0  0  0  0  0  0
   10.8498   -4.2774    0.0000 H   0  0  0  0  0  0  0  0  0  0  0  0
    9.1622    1.4676    0.0000 H   0  0  0  0  0  0  0  0  0  0  0  0
   11.2691   -2.7126    0.0000 H   0  0  0  0  0  0  0  0  0  0  0  0
    6.3726    3.1116    0.0000 H   0  0  0  0  0  0  0  0  0  0  0  0
    9.6105    3.1406    0.0000 H   0  0  0  0  0  0  0  0  0  0  0  0
    7.6264    5.1247    0.0000 H   0  0  0  0  0  0  0  0  0  0  0  0
   10.7560    4.2861    0.0000 H   0  0  0  0  0  0  0  0  0  0  0  0
    8.7719    6.2702    0.0000 H   0  0  0  0  0  0  0  0  0  0  0  0
   10.3367    5.8509    0.0000 H   0  0  0  0  0  0  0  0  0  0  0  0
    5.7659    6.1791    0.0000 H   0  0  0  0  0  0  0  0  0  0  0  0
    5.0397    3.4688    0.0000 H   0  0  0  0  0  0  0  0  0  0  0  0
    4.2011    6.5984    0.0000 H   0  0  0  0  0  0  0  0  0  0  0  0
    3.4749    3.8881    0.0000 H   0  0  0  0  0  0  0  0  0  0  0  0
    3.0556    5.4529    0.0000 H   0  0  0  0  0  0  0  0  0  0  0  0
  1 19  1  0  0  0  0
  1 25  1  0  0  0  0
  2 17  1  0  0  0  0
  2 36  1  0  0  0  0
  3 20  1  0  0  0  0
  3 37  1  0  0  0  0
  4 21  1  0  0  0  0
  4 84  1  0  0  0  0
  5 22  1  0  0  0  0
  5 85  1  0  0  0  0
  6 30  1  0  0  0  0
  6 39  1  0  0  0  0
  7 26  2  0  0  0  0
  8 31  1  0  0  0  0
  8 40  1  0  0  0  0
  9 36  2  0  0  0  0
 10 37  2  0  0  0  0
 11 39  2  0  0  0  0
 12 40  2  0  0  0  0
 13 42  1  0  0  0  0
 13101  1  0  0  0  0
 14 53  2  0  0  0  0
 15 46  1  0  0  0  0
 15 53  1  0  0  0  0
 15103  1  0  0  0  0
 16 17  1  0  0  0  0
 16 18  1  0  0  0  0
 16 20  1  0  0  0  0
 16 63  1  0  0  0  0
 17 19  1  0  0  0  0
 17 25  1  0  0  0  0
 18 22  1  0  0  0  0
 18 26  1  0  0  0  0
 18 29  1  0  0  0  0
 19 23  1  0  0  0  0
 19 64  1  0  0  0  0
 20 21  1  0  0  0  0
 20 65  1  0  0  0  0
 21 24  1  0  0  0  0
 21 27  1  0  0  0  0
 22 23  1  0  0  0  0
 22 66  1  0  0  0  0
 23 67  1  0  0  0  0
 23 68  1  0  0  0  0
 24 28  1  0  0  0  0
 24 33  1  0  0  0  0
 24 34  1  0  0  0  0
 25 69  1  0  0  0  0
 25 70  1  0  0  0  0
 26 30  1  0  0  0  0
 27 31  1  0  0  0  0
 27 71  1  0  0  0  0
 27 72  1  0  0  0  0
 28 30  1  0  0  0  0
 28 32  2  0  0  0  0
 29 73  1  0  0  0  0
 29 74  1  0  0  0  0
 29 75  1  0  0  0  0
 30 76  1  0  0  0  0
 31 32  1  0  0  0  0
 31 77  1  0  0  0  0
 32 35  1  0  0  0  0
 33 78  1  0  0  0  0
 33 79  1  0  0  0  0
 33 80  1  0  0  0  0
 34 81  1  0  0  0  0
 34 82  1  0  0  0  0
 34 83  1  0  0  0  0
 35 86  1  0  0  0  0
 35 87  1  0  0  0  0
 35 88  1  0  0  0  0
 36 38  1  0  0  0  0
 37 41  1  0  0  0  0
 38 89  1  0  0  0  0
 38 90  1  0  0  0  0
 38 91  1  0  0  0  0
 39 43  1  0  0  0  0
 40 42  1  0  0  0  0
 41 44  2  0  0  0  0
 41 45  1  0  0  0  0
 42 46  1  0  0  0  0
 42 92  1  0  0  0  0
 43 93  1  0  0  0  0
 43 94  1  0  0  0  0
 43 95  1  0  0  0  0
 44 47  1  0  0  0  0
 44 96  1  0  0  0  0
 45 48  2  0  0  0  0
 45 97  1  0  0  0  0
 46 50  1  0  0  0  0
 46 98  1  0  0  0  0
 47 49  2  0  0  0  0
 47 99  1  0  0  0  0
 48 49  1  0  0  0  0
 48100  1  0  0  0  0
 49102  1  0  0  0  0
 50 51  2  0  0  0  0
 50 52  1  0  0  0  0
 51 54  1  0  0  0  0
 51104  1  0  0  0  0
 52 55  2  0  0  0  0
 52105  1  0  0  0  0
 53 56  1  0  0  0  0
 54 57  2  0  0  0  0
 54106  1  0  0  0  0
 55 57  1  0  0  0  0
 55107  1  0  0  0  0
 56 58  2  0  0  0  0
 56 59  1  0  0  0  0
 57108  1  0  0  0  0
 58 60  1  0  0  0  0
 58109  1  0  0  0  0
 59 61  2  0  0  0  0
 59110  1  0  0  0  0
 60 62  2  0  0  0  0
 60111  1  0  0  0  0
 61 62  1  0  0  0  0
 61112  1  0  0  0  0
 62113  1  0  0  0  0
M  END
> <PUBCHEM_COMPOUND_CID>
4666

> <PUBCHEM_COMPOUND_CANONICALIZED>
1

> <PUBCHEM_CACTVS_COMPLEXITY>
1790

> <PUBCHEM_CACTVS_HBOND_ACCEPTOR>
14

> <PUBCHEM_CACTVS_HBOND_DONOR>
4

> <PUBCHEM_CACTVS_ROTATABLE_BOND>
14

> <PUBCHEM_CACTVS_SUBSKEYS>
AAADcfB+PAAAAAAAAAAAAAAAAABIAAAAAAAwYMGCAAAaIACBUAAAHgAQCAAAD3zhmAYyCILABgCIAqHSGAKCAAAkAAAIiIFIDMgLNj6AtR2GcQhn9gGbqYfa7PzPgAAAAAAAAABCAAYQADCAAAAAAAAAAA==

> <PUBCHEM_IUPAC_INCHI>
InChI=1S/C47H51NO14/c1-25-31(60-43(56)36(52)35(28-16-10-7-11-17-28)48-41(54)29-18-12-8-13-19-29)23-47(57)40(61-42(55)30-20-14-9-15-21-30)38-45(6,32(51)22-33-46(38,24-58-33)62-27(3)50)39(53)37(59-26(2)49)34(25)44(47,4)5/h7-21,31-33,35-38,40,51-52,57H,22-24H2,1-6H3,(H,48,54)

> <PUBCHEM_IUPAC_INCHIKEY>
RCINICONZNJXQF-UHFFFAOYSA-N

> <PUBCHEM_XLOGP3>
2.5

> <PUBCHEM_EXACT_MASS>
853.330955

> <PUBCHEM_MOLECULAR_FORMULA>
C47H51NO14

> <PUBCHEM_MOLECULAR_WEIGHT>
853.90614

> <PUBCHEM_OPENEYE_CAN_SMILES>
CC1=C2C(C(=O)C3(C(CC4C(C3C(C(C2(C)C)(CC1OC(=O)C(C(C5=CC=CC=C5)NC(=O)C6=CC=CC=C6)O)O)OC(=O)C7=CC=CC=C7)(CO4)OC(=O)C)O)C)OC(=O)C

> <PUBCHEM_OPENEYE_ISO_SMILES>
CC1=C2C(C(=O)C3(C(CC4C(C3C(C(C2(C)C)(CC1OC(=O)C(C(C5=CC=CC=C5)NC(=O)C6=CC=CC=C6)O)O)OC(=O)C7=CC=CC=C7)(CO4)OC(=O)C)O)C)OC(=O)C

> <PUBCHEM_CACTVS_TPSA>
221

> <PUBCHEM_MONOISOTOPIC_WEIGHT>
853.330955

> <PUBCHEM_TOTAL_CHARGE>
0

> <PUBCHEM_HEAVY_ATOM_COUNT>
62

> <PUBCHEM_ATOM_DEF_STEREO_COUNT>
0

> <PUBCHEM_ATOM_UDEF_STEREO_COUNT>
11

> <PUBCHEM_BOND_DEF_STEREO_COUNT>
0

> <PUBCHEM_BOND_UDEF_STEREO_COUNT>
0

> <PUBCHEM_ISOTOPIC_ATOM_COUNT>
0

> <PUBCHEM_COMPONENT_COUNT>
1

> <PUBCHEM_CACTVS_TAUTO_COUNT>
6

> <PUBCHEM_COORDINATE_TYPE>
1
5
255

> <PUBCHEM_BONDANNOTATIONS>
16  63  3
18  29  3
19  64  3
17  2  3
20  65  3
22  66  3
30  76  3
31  77  3
21  4  3
41  44  8
41  45  8
42  92  3
44  47  8
45  48  8
46  98  3
47  49  8
48  49  8
50  51  8
50  52  8
51  54  8
52  55  8
54  57  8
55  57  8
56  58  8
56  59  8
58  60  8
59  61  8
60  62  8
61  62  8

$$$$
