4730
  -OEChem-12171208092D

 41 43  0     1  0  0  0  0  0999 V2000
    9.6813    0.1656    0.0000 S   0  0  0  0  0  0  0  0  0  0  0  0
    7.0163   -1.8562    0.0000 O   0  0  0  0  0  0  0  0  0  0  0  0
    9.3212   -3.1467    0.0000 O   0  5  0  0  0  0  0  0  0  0  0  0
   10.9685   -2.6114    0.0000 O   0  0  0  0  0  0  0  0  0  0  0  0
    5.7891   -0.6530    0.0000 O   0  0  0  0  0  0  0  0  0  0  0  0
    4.3778    0.7642    0.0000 O   0  0  0  0  0  0  0  0  0  0  0  0
    8.7303   -1.1434    0.0000 N   0  0  0  0  0  0  0  0  0  0  0  0
    7.0163    0.5693    0.0000 N   0  0  0  0  0  0  0  0  0  0  0  0
    8.7303   -0.1434    0.0000 C   0  0  3  0  0  0  0  0  0  0  0  0
   10.2691   -0.6434    0.0000 C   0  0  0  0  0  0  0  0  0  0  0  0
    9.6813   -1.4525    0.0000 C   0  0  3  0  0  0  0  0  0  0  0  0
    7.7220   -0.1393    0.0000 C   0  0  3  0  0  0  0  0  0  0  0  0
    7.7220   -1.1476    0.0000 C   0  0  0  0  0  0  0  0  0  0  0  0
   11.0781   -0.0557    0.0000 C   0  0  0  0  0  0  0  0  0  0  0  0
   11.0781   -1.2312    0.0000 C   0  0  0  0  0  0  0  0  0  0  0  0
    9.9903   -2.4035    0.0000 C   0  0  0  0  0  0  0  0  0  0  0  0
    6.0499    0.3124    0.0000 C   0  0  0  0  0  0  0  0  0  0  0  0
    5.3442    1.0210    0.0000 C   0  0  0  0  0  0  0  0  0  0  0  0
    3.6721    1.4727    0.0000 C   0  0  0  0  0  0  0  0  0  0  0  0
    3.9329    2.4381    0.0000 C   0  0  0  0  0  0  0  0  0  0  0  0
    2.7056    1.2159    0.0000 C   0  0  0  0  0  0  0  0  0  0  0  0
    3.2273    3.1467    0.0000 C   0  0  0  0  0  0  0  0  0  0  0  0
    2.0000    1.9244    0.0000 C   0  0  0  0  0  0  0  0  0  0  0  0
    2.2608    2.8898    0.0000 C   0  0  0  0  0  0  0  0  0  0  0  0
    8.6345    0.4691    0.0000 H   0  0  0  0  0  0  0  0  0  0  0  0
    9.2429   -1.8909    0.0000 H   0  0  0  0  0  0  0  0  0  0  0  0
    7.1489   -0.3760    0.0000 H   0  0  0  0  0  0  0  0  0  0  0  0
   10.7137   -1.7328    0.0000 H   0  0  0  0  0  0  0  0  0  0  0  0
   11.5797   -1.5956    0.0000 H   0  0  0  0  0  0  0  0  0  0  0  0
   11.4425   -0.5572    0.0000 H   0  0  0  0  0  0  0  0  0  0  0  0
   11.5797    0.3088    0.0000 H   0  0  0  0  0  0  0  0  0  0  0  0
   10.7137    0.4459    0.0000 H   0  0  0  0  0  0  0  0  0  0  0  0
   11.4425   -0.7296    0.0000 H   0  0  0  0  0  0  0  0  0  0  0  0
    7.1780    1.1678    0.0000 H   0  0  0  0  0  0  0  0  0  0  0  0
    5.8528    1.3756    0.0000 H   0  0  0  0  0  0  0  0  0  0  0  0
    5.0834    1.5834    0.0000 H   0  0  0  0  0  0  0  0  0  0  0  0
    4.5321    2.5973    0.0000 H   0  0  0  0  0  0  0  0  0  0  0  0
    2.5440    0.6173    0.0000 H   0  0  0  0  0  0  0  0  0  0  0  0
    3.3890    3.7452    0.0000 H   0  0  0  0  0  0  0  0  0  0  0  0
    1.4008    1.7652    0.0000 H   0  0  0  0  0  0  0  0  0  0  0  0
    1.8233    3.3291    0.0000 H   0  0  0  0  0  0  0  0  0  0  0  0
  1  9  1  0  0  0  0
  1 10  1  0  0  0  0
  2 13  2  0  0  0  0
  3 16  1  0  0  0  0
  4 16  2  0  0  0  0
  5 17  2  0  0  0  0
  6 18  1  0  0  0  0
  6 19  1  0  0  0  0
  7  9  1  0  0  0  0
  7 11  1  0  0  0  0
  7 13  1  0  0  0  0
  8 12  1  0  0  0  0
  8 17  1  0  0  0  0
  8 34  1  0  0  0  0
  9 12  1  0  0  0  0
  9 25  1  0  0  0  0
 10 11  1  0  0  0  0
 10 14  1  0  0  0  0
 10 15  1  0  0  0  0
 11 16  1  0  0  0  0
 11 26  1  0  0  0  0
 12 13  1  0  0  0  0
 12 27  1  0  0  0  0
 14 30  1  0  0  0  0
 14 31  1  0  0  0  0
 14 32  1  0  0  0  0
 15 28  1  0  0  0  0
 15 29  1  0  0  0  0
 15 33  1  0  0  0  0
 17 18  1  0  0  0  0
 18 35  1  0  0  0  0
 18 36  1  0  0  0  0
 19 20  2  0  0  0  0
 19 21  1  0  0  0  0
 20 22  1  0  0  0  0
 20 37  1  0  0  0  0
 21 23  2  0  0  0  0
 21 38  1  0  0  0  0
 22 24  2  0  0  0  0
 22 39  1  0  0  0  0
 23 24  1  0  0  0  0
 23 40  1  0  0  0  0
 24 41  1  0  0  0  0
M  CHG  1   3  -1
M  END
> <PUBCHEM_COMPOUND_CID>
4730

> <PUBCHEM_COMPOUND_CANONICALIZED>
1

> <PUBCHEM_CACTVS_COMPLEXITY>
541

> <PUBCHEM_CACTVS_HBOND_ACCEPTOR>
6

> <PUBCHEM_CACTVS_HBOND_DONOR>
1

> <PUBCHEM_CACTVS_ROTATABLE_BOND>
4

> <PUBCHEM_CACTVS_SUBSKEYS>
AAADceB7OABAAAAAAAAAAAAAAABYAWAAAAAwAAAABYAAAAABAAAAHgQQAAAADCzl0AayDoPABAiIACHSGAICCABgIBAIiIHOCIgOZjqkMT6XOCCk1hG4qAeAQAAIAAAAAAAAAAAAAAAAAAAAAAAAAAAAAA==

> <PUBCHEM_IUPAC_OPENEYE_NAME>
3,3-dimethyl-7-oxo-6-[(2-phenoxyacetyl)amino]-4-thia-1-azabicyclo[3.2.0]heptane-2-carboxylate

> <PUBCHEM_IUPAC_CAS_NAME>
3,3-dimethyl-7-oxo-6-[(1-oxo-2-phenoxyethyl)amino]-4-thia-1-azabicyclo[3.2.0]heptane-2-carboxylate

> <PUBCHEM_IUPAC_NAME>
3,3-dimethyl-7-oxo-6-[(2-phenoxyacetyl)amino]-4-thia-1-azabicyclo[3.2.0]heptane-2-carboxylate

> <PUBCHEM_IUPAC_SYSTEMATIC_NAME>
3,3-dimethyl-7-oxidanylidene-6-(2-phenoxyethanoylamino)-4-thia-1-azabicyclo[3.2.0]heptane-2-carboxylate

> <PUBCHEM_IUPAC_TRADITIONAL_NAME>
7-keto-3,3-dimethyl-6-[(2-phenoxyacetyl)amino]-4-thia-1-azabicyclo[3.2.0]heptane-2-carboxylate

> <PUBCHEM_IUPAC_INCHI>
InChI=1S/C16H18N2O5S/c1-16(2)12(15(21)22)18-13(20)11(14(18)24-16)17-10(19)8-23-9-6-4-3-5-7-9/h3-7,11-12,14H,8H2,1-2H3,(H,17,19)(H,21,22)/p-1

> <PUBCHEM_IUPAC_INCHIKEY>
BPLBGHOLXOTWMN-UHFFFAOYSA-M

> <PUBCHEM_XLOGP3>
2.7

> <PUBCHEM_EXACT_MASS>
349.085818

> <PUBCHEM_MOLECULAR_FORMULA>
C16H17N2O5S-

> <PUBCHEM_MOLECULAR_WEIGHT>
349.38158

> <PUBCHEM_OPENEYE_CAN_SMILES>
CC1(C(N2C(S1)C(C2=O)NC(=O)COC3=CC=CC=C3)C(=O)[O-])C

> <PUBCHEM_OPENEYE_ISO_SMILES>
CC1(C(N2C(S1)C(C2=O)NC(=O)COC3=CC=CC=C3)C(=O)[O-])C

> <PUBCHEM_CACTVS_TPSA>
124

> <PUBCHEM_MONOISOTOPIC_WEIGHT>
349.085818

> <PUBCHEM_TOTAL_CHARGE>
-1

> <PUBCHEM_HEAVY_ATOM_COUNT>
24

> <PUBCHEM_ATOM_DEF_STEREO_COUNT>
0

> <PUBCHEM_ATOM_UDEF_STEREO_COUNT>
3

> <PUBCHEM_BOND_DEF_STEREO_COUNT>
0

> <PUBCHEM_BOND_UDEF_STEREO_COUNT>
0

> <PUBCHEM_ISOTOPIC_ATOM_COUNT>
0

> <PUBCHEM_COMPONENT_COUNT>
1

> <PUBCHEM_CACTVS_TAUTO_COUNT>
4

> <PUBCHEM_COORDINATE_TYPE>
1
5
255

> <PUBCHEM_BONDANNOTATIONS>
9  1  3
11  16  3
19  20  8
19  21  8
20  22  8
21  23  8
22  24  8
23  24  8
12  8  3

$$$$
