47319
  -OEChem-12171208182D

139144  0     1  0  0  0  0  0999 V2000
   22.9583   -3.5882    0.0000 O   0  0  0  0  0  0  0  0  0  0  0  0
    5.4102    6.5432    0.0000 O   0  0  0  0  0  0  0  0  0  0  0  0
   22.9583   -1.5399    0.0000 O   0  0  0  0  0  0  0  0  0  0  0  0
    7.1840    7.5674    0.0000 O   0  0  0  0  0  0  0  0  0  0  0  0
   11.0622    1.2661    0.0000 O   0  0  0  0  0  0  0  0  0  0  0  0
   15.5622   -1.3320    0.0000 O   0  0  0  0  0  0  0  0  0  0  0  0
   15.5622   -3.0640    0.0000 O   0  0  0  0  0  0  0  0  0  0  0  0
    9.5622    0.4001    0.0000 O   0  0  0  0  0  0  0  0  0  0  0  0
   21.1603   -7.5640    0.0000 O   0  0  0  0  0  0  0  0  0  0  0  0
    4.5981    5.9981    0.0000 O   0  0  0  0  0  0  0  0  0  0  0  0
   22.8923   -6.5640    0.0000 O   0  0  0  0  0  0  0  0  0  0  0  0
    2.8660    4.9981    0.0000 O   0  0  0  0  0  0  0  0  0  0  0  0
   18.5622   -3.0640    0.0000 N   0  3  3  0  0  0  0  0  0  0  0  0
    8.0622    2.9981    0.0000 N   0  3  3  0  0  0  0  0  0  0  0  0
    7.1962    3.4981    0.0000 C   0  0  3  0  0  0  0  0  0  0  0  0
   19.4282   -3.5640    0.0000 C   0  0  3  0  0  0  0  0  0  0  0  0
    8.9282    3.4981    0.0000 C   0  0  0  0  0  0  0  0  0  0  0  0
   18.5622   -2.0640    0.0000 C   0  0  0  0  0  0  0  0  0  0  0  0
    8.5622    2.1321    0.0000 C   0  0  0  0  0  0  0  0  0  0  0  0
   17.5622   -3.0640    0.0000 C   0  0  0  0  0  0  0  0  0  0  0  0
    7.1962    4.4981    0.0000 C   0  0  0  0  0  0  0  0  0  0  0  0
   20.2942   -3.0640    0.0000 C   0  0  0  0  0  0  0  0  0  0  0  0
   19.4282   -1.5640    0.0000 C   0  0  0  0  0  0  0  0  0  0  0  0
    8.9282    4.4981    0.0000 C   0  0  0  0  0  0  0  0  0  0  0  0
    7.5622    2.1321    0.0000 C   0  0  0  0  0  0  0  0  0  0  0  0
   18.0622   -3.9301    0.0000 C   0  0  0  0  0  0  0  0  0  0  0  0
    6.3301    2.9981    0.0000 C   0  0  0  0  0  0  0  0  0  0  0  0
   19.4282   -4.5640    0.0000 C   0  0  0  0  0  0  0  0  0  0  0  0
    8.0622    4.9981    0.0000 C   0  0  0  0  0  0  0  0  0  0  0  0
   20.2942   -2.0640    0.0000 C   0  0  0  0  0  0  0  0  0  0  0  0
   17.0622   -2.1980    0.0000 C   0  0  0  0  0  0  0  0  0  0  0  0
    9.5622    2.1321    0.0000 C   0  0  0  0  0  0  0  0  0  0  0  0
    6.2862    5.0050    0.0000 C   0  0  0  0  0  0  0  0  0  0  0  0
   21.1882   -3.5987    0.0000 C   0  0  0  0  0  0  0  0  0  0  0  0
    5.4641    3.4981    0.0000 C   0  0  0  0  0  0  0  0  0  0  0  0
   20.2942   -5.0640    0.0000 C   0  0  0  0  0  0  0  0  0  0  0  0
   21.1882   -1.5294    0.0000 C   0  0  0  0  0  0  0  0  0  0  0  0
    8.0782    6.0396    0.0000 C   0  0  0  0  0  0  0  0  0  0  0  0
    6.2781    6.0466    0.0000 C   0  0  0  0  0  0  0  0  0  0  0  0
   22.0942   -3.0849    0.0000 C   0  0  0  0  0  0  0  0  0  0  0  0
    7.1802    6.5674    0.0000 C   0  0  0  0  0  0  0  0  0  0  0  0
   22.0942   -2.0432    0.0000 C   0  0  0  0  0  0  0  0  0  0  0  0
   10.0622    1.2661    0.0000 C   0  0  0  0  0  0  0  0  0  0  0  0
   16.0622   -2.1980    0.0000 C   0  0  0  0  0  0  0  0  0  0  0  0
    5.4641    4.4981    0.0000 C   0  0  0  0  0  0  0  0  0  0  0  0
   20.2942   -6.0640    0.0000 C   0  0  0  0  0  0  0  0  0  0  0  0
    4.5981    2.9981    0.0000 C   0  0  0  0  0  0  0  0  0  0  0  0
   21.1603   -4.5640    0.0000 C   0  0  0  0  0  0  0  0  0  0  0  0
   21.1603   -6.5640    0.0000 C   0  0  0  0  0  0  0  0  0  0  0  0
    4.5981    4.9981    0.0000 C   0  0  0  0  0  0  0  0  0  0  0  0
    3.7320    3.4981    0.0000 C   0  0  0  0  0  0  0  0  0  0  0  0
   22.0263   -5.0640    0.0000 C   0  0  0  0  0  0  0  0  0  0  0  0
    3.7320    4.4981    0.0000 C   0  0  0  0  0  0  0  0  0  0  0  0
   22.0263   -6.0640    0.0000 C   0  0  0  0  0  0  0  0  0  0  0  0
   11.5622    0.4001    0.0000 C   0  0  0  0  0  0  0  0  0  0  0  0
   14.5622   -1.3320    0.0000 C   0  0  0  0  0  0  0  0  0  0  0  0
   14.0622   -0.4660    0.0000 C   0  0  0  0  0  0  0  0  0  0  0  0
   12.5622    0.4001    0.0000 C   0  0  0  0  0  0  0  0  0  0  0  0
    5.4063    7.5432    0.0000 C   0  0  0  0  0  0  0  0  0  0  0  0
   23.8263   -3.0915    0.0000 C   0  0  0  0  0  0  0  0  0  0  0  0
   13.0622   -0.4660    0.0000 C   0  0  0  0  0  0  0  0  0  0  0  0
    8.0520    8.0640    0.0000 C   0  0  0  0  0  0  0  0  0  0  0  0
   22.9545   -0.5399    0.0000 C   0  0  0  0  0  0  0  0  0  0  0  0
   20.2942   -8.0640    0.0000 C   0  0  0  0  0  0  0  0  0  0  0  0
    3.7320    6.4981    0.0000 C   0  0  0  0  0  0  0  0  0  0  0  0
   22.8923   -7.5640    0.0000 C   0  0  0  0  0  0  0  0  0  0  0  0
    2.0000    4.4981    0.0000 C   0  0  0  0  0  0  0  0  0  0  0  0
    7.1962    2.8781    0.0000 H   0  0  0  0  0  0  0  0  0  0  0  0
   18.8913   -3.8740    0.0000 H   0  0  0  0  0  0  0  0  0  0  0  0
    9.1403    2.9155    0.0000 H   0  0  0  0  0  0  0  0  0  0  0  0
    9.5388    3.6058    0.0000 H   0  0  0  0  0  0  0  0  0  0  0  0
   18.3501   -1.4814    0.0000 H   0  0  0  0  0  0  0  0  0  0  0  0
   17.9516   -2.1717    0.0000 H   0  0  0  0  0  0  0  0  0  0  0  0
   16.9796   -3.2761    0.0000 H   0  0  0  0  0  0  0  0  0  0  0  0
   17.6698   -3.6746    0.0000 H   0  0  0  0  0  0  0  0  0  0  0  0
    7.9796    1.9201    0.0000 H   0  0  0  0  0  0  0  0  0  0  0  0
    8.6698    1.5215    0.0000 H   0  0  0  0  0  0  0  0  0  0  0  0
    9.5388    4.3905    0.0000 H   0  0  0  0  0  0  0  0  0  0  0  0
    9.1403    5.0807    0.0000 H   0  0  0  0  0  0  0  0  0  0  0  0
   19.8267   -1.0891    0.0000 H   0  0  0  0  0  0  0  0  0  0  0  0
   19.0297   -1.0891    0.0000 H   0  0  0  0  0  0  0  0  0  0  0  0
   17.5252   -3.6201    0.0000 H   0  0  0  0  0  0  0  0  0  0  0  0
   17.7522   -4.4670    0.0000 H   0  0  0  0  0  0  0  0  0  0  0  0
   18.5991   -4.2401    0.0000 H   0  0  0  0  0  0  0  0  0  0  0  0
    7.0252    2.4421    0.0000 H   0  0  0  0  0  0  0  0  0  0  0  0
    7.2522    1.5952    0.0000 H   0  0  0  0  0  0  0  0  0  0  0  0
    8.0991    1.8221    0.0000 H   0  0  0  0  0  0  0  0  0  0  0  0
    5.9316    2.5232    0.0000 H   0  0  0  0  0  0  0  0  0  0  0  0
    6.7287    2.5232    0.0000 H   0  0  0  0  0  0  0  0  0  0  0  0
   18.8176   -4.4564    0.0000 H   0  0  0  0  0  0  0  0  0  0  0  0
   19.2162   -5.1466    0.0000 H   0  0  0  0  0  0  0  0  0  0  0  0
   17.6448   -1.9860    0.0000 H   0  0  0  0  0  0  0  0  0  0  0  0
   16.9545   -1.5874    0.0000 H   0  0  0  0  0  0  0  0  0  0  0  0
   10.1448    2.3442    0.0000 H   0  0  0  0  0  0  0  0  0  0  0  0
    9.4545    2.7427    0.0000 H   0  0  0  0  0  0  0  0  0  0  0  0
   21.1810   -4.2187    0.0000 H   0  0  0  0  0  0  0  0  0  0  0  0
    5.7528    4.6888    0.0000 H   0  0  0  0  0  0  0  0  0  0  0  0
   21.1810   -0.9094    0.0000 H   0  0  0  0  0  0  0  0  0  0  0  0
    8.6187    6.3434    0.0000 H   0  0  0  0  0  0  0  0  0  0  0  0
    6.0010    4.8081    0.0000 H   0  0  0  0  0  0  0  0  0  0  0  0
   19.7573   -6.3740    0.0000 H   0  0  0  0  0  0  0  0  0  0  0  0
   21.1603   -3.9440    0.0000 H   0  0  0  0  0  0  0  0  0  0  0  0
    4.5981    2.3781    0.0000 H   0  0  0  0  0  0  0  0  0  0  0  0
   22.5632   -4.7540    0.0000 H   0  0  0  0  0  0  0  0  0  0  0  0
    3.1951    3.1881    0.0000 H   0  0  0  0  0  0  0  0  0  0  0  0
   13.9796   -1.5440    0.0000 H   0  0  0  0  0  0  0  0  0  0  0  0
   14.6698   -1.9426    0.0000 H   0  0  0  0  0  0  0  0  0  0  0  0
   10.9796    0.1880    0.0000 H   0  0  0  0  0  0  0  0  0  0  0  0
   11.6698   -0.2105    0.0000 H   0  0  0  0  0  0  0  0  0  0  0  0
   14.6448   -0.2539    0.0000 H   0  0  0  0  0  0  0  0  0  0  0  0
   13.9545    0.1446    0.0000 H   0  0  0  0  0  0  0  0  0  0  0  0
   13.1448    0.6121    0.0000 H   0  0  0  0  0  0  0  0  0  0  0  0
   12.4545    1.0106    0.0000 H   0  0  0  0  0  0  0  0  0  0  0  0
    6.0263    7.5456    0.0000 H   0  0  0  0  0  0  0  0  0  0  0  0
   24.1342   -3.6297    0.0000 H   0  0  0  0  0  0  0  0  0  0  0  0
   24.3644   -2.7836    0.0000 H   0  0  0  0  0  0  0  0  0  0  0  0
   23.5183   -2.5534    0.0000 H   0  0  0  0  0  0  0  0  0  0  0  0
    5.4039    8.1632    0.0000 H   0  0  0  0  0  0  0  0  0  0  0  0
    4.7863    7.5408    0.0000 H   0  0  0  0  0  0  0  0  0  0  0  0
   12.4796   -0.6780    0.0000 H   0  0  0  0  0  0  0  0  0  0  0  0
   13.1698   -1.0765    0.0000 H   0  0  0  0  0  0  0  0  0  0  0  0
    8.3599    7.5259    0.0000 H   0  0  0  0  0  0  0  0  0  0  0  0
   23.5745   -0.5375    0.0000 H   0  0  0  0  0  0  0  0  0  0  0  0
   22.9521    0.0801    0.0000 H   0  0  0  0  0  0  0  0  0  0  0  0
   22.3345   -0.5423    0.0000 H   0  0  0  0  0  0  0  0  0  0  0  0
    8.5901    8.3720    0.0000 H   0  0  0  0  0  0  0  0  0  0  0  0
    7.7441    8.6022    0.0000 H   0  0  0  0  0  0  0  0  0  0  0  0
   19.9842   -7.5271    0.0000 H   0  0  0  0  0  0  0  0  0  0  0  0
   19.7573   -8.3740    0.0000 H   0  0  0  0  0  0  0  0  0  0  0  0
   20.6042   -8.6010    0.0000 H   0  0  0  0  0  0  0  0  0  0  0  0
    4.0420    7.0351    0.0000 H   0  0  0  0  0  0  0  0  0  0  0  0
    3.1951    6.8081    0.0000 H   0  0  0  0  0  0  0  0  0  0  0  0
    3.4220    5.9612    0.0000 H   0  0  0  0  0  0  0  0  0  0  0  0
    1.6900    5.0351    0.0000 H   0  0  0  0  0  0  0  0  0  0  0  0
    1.4631    4.1881    0.0000 H   0  0  0  0  0  0  0  0  0  0  0  0
   22.2723   -7.5640    0.0000 H   0  0  0  0  0  0  0  0  0  0  0  0
   22.8923   -8.1840    0.0000 H   0  0  0  0  0  0  0  0  0  0  0  0
   23.5123   -7.5640    0.0000 H   0  0  0  0  0  0  0  0  0  0  0  0
    2.3100    3.9612    0.0000 H   0  0  0  0  0  0  0  0  0  0  0  0
  1 40  1  0  0  0  0
  1 60  1  0  0  0  0
  2 39  1  0  0  0  0
  2 59  1  0  0  0  0
  3 42  1  0  0  0  0
  3 63  1  0  0  0  0
  4 41  1  0  0  0  0
  4 62  1  0  0  0  0
  5 43  1  0  0  0  0
  5 55  1  0  0  0  0
  6 44  1  0  0  0  0
  6 56  1  0  0  0  0
  7 44  2  0  0  0  0
  8 43  2  0  0  0  0
  9 49  1  0  0  0  0
  9 64  1  0  0  0  0
 10 50  1  0  0  0  0
 10 65  1  0  0  0  0
 11 54  1  0  0  0  0
 11 66  1  0  0  0  0
 12 53  1  0  0  0  0
 12 67  1  0  0  0  0
 13 16  1  0  0  0  0
 13 18  1  0  0  0  0
 13 20  1  0  0  0  0
 13 26  1  0  0  0  0
 14 15  1  0  0  0  0
 14 17  1  0  0  0  0
 14 19  1  0  0  0  0
 14 25  1  0  0  0  0
 15 21  1  0  0  0  0
 15 27  1  0  0  0  0
 15 68  1  0  0  0  0
 16 22  1  0  0  0  0
 16 28  1  0  0  0  0
 16 69  1  0  0  0  0
 17 24  1  0  0  0  0
 17 70  1  0  0  0  0
 17 71  1  0  0  0  0
 18 23  1  0  0  0  0
 18 72  1  0  0  0  0
 18 73  1  0  0  0  0
 19 32  1  0  0  0  0
 19 76  1  0  0  0  0
 19 77  1  0  0  0  0
 20 31  1  0  0  0  0
 20 74  1  0  0  0  0
 20 75  1  0  0  0  0
 21 29  1  0  0  0  0
 21 33  2  0  0  0  0
 22 30  1  0  0  0  0
 22 34  2  0  0  0  0
 23 30  1  0  0  0  0
 23 80  1  0  0  0  0
 23 81  1  0  0  0  0
 24 29  1  0  0  0  0
 24 78  1  0  0  0  0
 24 79  1  0  0  0  0
 25 85  1  0  0  0  0
 25 86  1  0  0  0  0
 25 87  1  0  0  0  0
 26 82  1  0  0  0  0
 26 83  1  0  0  0  0
 26 84  1  0  0  0  0
 27 35  1  0  0  0  0
 27 88  1  0  0  0  0
 27 89  1  0  0  0  0
 28 36  1  0  0  0  0
 28 90  1  0  0  0  0
 28 91  1  0  0  0  0
 29 38  2  0  0  0  0
 30 37  2  0  0  0  0
 31 44  1  0  0  0  0
 31 92  1  0  0  0  0
 31 93  1  0  0  0  0
 32 43  1  0  0  0  0
 32 94  1  0  0  0  0
 32 95  1  0  0  0  0
 33 39  1  0  0  0  0
 33 97  1  0  0  0  0
 34 40  1  0  0  0  0
 34 96  1  0  0  0  0
 35 45  2  0  0  0  0
 35 47  1  0  0  0  0
 36 46  2  0  0  0  0
 36 48  1  0  0  0  0
 37 42  1  0  0  0  0
 37 98  1  0  0  0  0
 38 41  1  0  0  0  0
 38 99  1  0  0  0  0
 39 41  2  0  0  0  0
 40 42  2  0  0  0  0
 45 50  1  0  0  0  0
 45100  1  0  0  0  0
 46 49  1  0  0  0  0
 46101  1  0  0  0  0
 47 51  2  0  0  0  0
 47103  1  0  0  0  0
 48 52  2  0  0  0  0
 48102  1  0  0  0  0
 49 54  2  0  0  0  0
 50 53  2  0  0  0  0
 51 53  1  0  0  0  0
 51105  1  0  0  0  0
 52 54  1  0  0  0  0
 52104  1  0  0  0  0
 55 58  1  0  0  0  0
 55108  1  0  0  0  0
 55109  1  0  0  0  0
 56 57  1  0  0  0  0
 56106  1  0  0  0  0
 56107  1  0  0  0  0
 57 61  1  0  0  0  0
 57110  1  0  0  0  0
 57111  1  0  0  0  0
 58 61  1  0  0  0  0
 58112  1  0  0  0  0
 58113  1  0  0  0  0
 59114  1  0  0  0  0
 59118  1  0  0  0  0
 59119  1  0  0  0  0
 60115  1  0  0  0  0
 60116  1  0  0  0  0
 60117  1  0  0  0  0
 61120  1  0  0  0  0
 61121  1  0  0  0  0
 62122  1  0  0  0  0
 62126  1  0  0  0  0
 62127  1  0  0  0  0
 63123  1  0  0  0  0
 63124  1  0  0  0  0
 63125  1  0  0  0  0
 64128  1  0  0  0  0
 64129  1  0  0  0  0
 64130  1  0  0  0  0
 65131  1  0  0  0  0
 65132  1  0  0  0  0
 65133  1  0  0  0  0
 66136  1  0  0  0  0
 66137  1  0  0  0  0
 66138  1  0  0  0  0
 67134  1  0  0  0  0
 67135  1  0  0  0  0
 67139  1  0  0  0  0
M  CHG  2  13   1  14   1
M  END
> <PUBCHEM_COMPOUND_CID>
47319

> <PUBCHEM_COMPOUND_CANONICALIZED>
1

> <PUBCHEM_CACTVS_COMPLEXITY>
1390

> <PUBCHEM_CACTVS_HBOND_ACCEPTOR>
12

> <PUBCHEM_CACTVS_HBOND_DONOR>
0

> <PUBCHEM_CACTVS_ROTATABLE_BOND>
26

> <PUBCHEM_CACTVS_SUBSKEYS>
AAADcfB/PAAAAAAAAAAAAAAAAAAAAAAAAAA8eMGCAAAAAACxVAAAHgAAAAAADCzhmAYyDoMABACIAiDSCACCCAAgIAAIiAEOjIgNJiqEsRuGMCpmwBGKqAew8PsOoAABAAAQQABAAAIAACCAAAAAAAAAAA==

> <PUBCHEM_IUPAC_OPENEYE_NAME>
5-[3-[1-[(3,4-dimethoxyphenyl)methyl]-6,7-dimethoxy-2-methyl-3,4-dihydro-1H-isoquinolin-2-ium-2-yl]propanoyloxy]pentyl 3-[1-[(3,4-dimethoxyphenyl)methyl]-6,7-dimethoxy-2-methyl-3,4-dihydro-1H-isoquinolin-2-ium-2-yl]propanoate

> <PUBCHEM_IUPAC_CAS_NAME>
3-[1-[(3,4-dimethoxyphenyl)methyl]-6,7-dimethoxy-2-methyl-3,4-dihydro-1H-isoquinolin-2-ium-2-yl]propanoic acid 5-[3-[1-[(3,4-dimethoxyphenyl)methyl]-6,7-dimethoxy-2-methyl-3,4-dihydro-1H-isoquinolin-2-ium-2-yl]-1-oxopropoxy]pentyl ester

> <PUBCHEM_IUPAC_NAME>
5-[3-[1-[(3,4-dimethoxyphenyl)methyl]-6,7-dimethoxy-2-methyl-3,4-dihydro-1H-isoquinolin-2-ium-2-yl]propanoyloxy]pentyl 3-[1-[(3,4-dimethoxyphenyl)methyl]-6,7-dimethoxy-2-methyl-3,4-dihydro-1H-isoquinolin-2-ium-2-yl]propanoate

> <PUBCHEM_IUPAC_SYSTEMATIC_NAME>
5-[3-[1-[(3,4-dimethoxyphenyl)methyl]-6,7-dimethoxy-2-methyl-3,4-dihydro-1H-isoquinolin-2-ium-2-yl]propanoyloxy]pentyl 3-[1-[(3,4-dimethoxyphenyl)methyl]-6,7-dimethoxy-2-methyl-3,4-dihydro-1H-isoquinolin-2-ium-2-yl]propanoate

> <PUBCHEM_IUPAC_TRADITIONAL_NAME>
3-(6,7-dimethoxy-2-methyl-1-veratryl-3,4-dihydro-1H-isoquinolin-2-ium-2-yl)propionic acid 5-[3-(6,7-dimethoxy-2-methyl-1-veratryl-3,4-dihydro-1H-isoquinolin-2-ium-2-yl)propanoyloxy]pentyl ester

> <PUBCHEM_IUPAC_INCHI>
InChI=1S/C53H72N2O12/c1-54(22-18-38-32-48(62-7)50(64-9)34-40(38)42(54)28-36-14-16-44(58-3)46(30-36)60-5)24-20-52(56)66-26-12-11-13-27-67-53(57)21-25-55(2)23-19-39-33-49(63-8)51(65-10)35-41(39)43(55)29-37-15-17-45(59-4)47(31-37)61-6/h14-17,30-35,42-43H,11-13,18-29H2,1-10H3/q+2

> <PUBCHEM_IUPAC_INCHIKEY>
YXSLJKQTIDHPOT-UHFFFAOYSA-N

> <PUBCHEM_XLOGP3_AA>
7.9

> <PUBCHEM_EXACT_MASS>
928.508526

> <PUBCHEM_MOLECULAR_FORMULA>
C53H72N2O12+2

> <PUBCHEM_MOLECULAR_WEIGHT>
929.14498

> <PUBCHEM_OPENEYE_CAN_SMILES>
C[N+]1(CCC2=CC(=C(C=C2C1CC3=CC(=C(C=C3)OC)OC)OC)OC)CCC(=O)OCCCCCOC(=O)CC[N+]4(CCC5=CC(=C(C=C5C4CC6=CC(=C(C=C6)OC)OC)OC)OC)C

> <PUBCHEM_OPENEYE_ISO_SMILES>
C[N+]1(CCC2=CC(=C(C=C2C1CC3=CC(=C(C=C3)OC)OC)OC)OC)CCC(=O)OCCCCCOC(=O)CC[N+]4(CCC5=CC(=C(C=C5C4CC6=CC(=C(C=C6)OC)OC)OC)OC)C

> <PUBCHEM_CACTVS_TPSA>
126

> <PUBCHEM_MONOISOTOPIC_WEIGHT>
928.508526

> <PUBCHEM_TOTAL_CHARGE>
2

> <PUBCHEM_HEAVY_ATOM_COUNT>
67

> <PUBCHEM_ATOM_DEF_STEREO_COUNT>
0

> <PUBCHEM_ATOM_UDEF_STEREO_COUNT>
4

> <PUBCHEM_BOND_DEF_STEREO_COUNT>
0

> <PUBCHEM_BOND_UDEF_STEREO_COUNT>
0

> <PUBCHEM_ISOTOPIC_ATOM_COUNT>
0

> <PUBCHEM_COMPONENT_COUNT>
1

> <PUBCHEM_CACTVS_TAUTO_COUNT>
1

> <PUBCHEM_COORDINATE_TYPE>
1
5
255

> <PUBCHEM_BONDANNOTATIONS>
13  26  3
14  25  3
15  27  3
16  28  3
21  29  8
21  33  8
22  30  8
22  34  8
29  38  8
30  37  8
33  39  8
34  40  8
35  45  8
35  47  8
36  46  8
36  48  8
37  42  8
38  41  8
39  41  8
40  42  8
45  50  8
46  49  8
47  51  8
48  52  8
49  54  8
50  53  8
51  53  8
52  54  8

$$$$
