47320
  -OEChem-12171208182D

169174  0     1  0  0  0  0  0999 V2000
   16.2656    3.6200    0.0000 S   0  0  0  0  0  0  0  0  0  0  0  0
    1.4030   13.2261    0.0000 S   0  0  0  0  0  0  0  0  0  0  0  0
    8.7621   21.7733    0.0000 O   0  0  0  0  0  0  0  0  0  0  0  0
   26.3102   11.6418    0.0000 O   0  0  0  0  0  0  0  0  0  0  0  0
   10.5360   22.7974    0.0000 O   0  0  0  0  0  0  0  0  0  0  0  0
   26.3102   13.6901    0.0000 O   0  0  0  0  0  0  0  0  0  0  0  0
   14.4141   16.4961    0.0000 O   0  0  0  0  0  0  0  0  0  0  0  0
   18.9141   13.8980    0.0000 O   0  0  0  0  0  0  0  0  0  0  0  0
   12.9141   15.6301    0.0000 O   0  0  0  0  0  0  0  0  0  0  0  0
   18.9141   12.1660    0.0000 O   0  0  0  0  0  0  0  0  0  0  0  0
   24.5122    7.6660    0.0000 O   0  0  0  0  0  0  0  0  0  0  0  0
    7.9500   21.2282    0.0000 O   0  0  0  0  0  0  0  0  0  0  0  0
   26.2442    8.6660    0.0000 O   0  0  0  0  0  0  0  0  0  0  0  0
    6.2179   20.2282    0.0000 O   0  0  0  0  0  0  0  0  0  0  0  0
    1.4030   14.2261    0.0000 O   0  5  0  0  0  0  0  0  0  0  0  0
   16.2656    4.6200    0.0000 O   0  5  0  0  0  0  0  0  0  0  0  0
    2.4030   13.2261    0.0000 O   0  0  0  0  0  0  0  0  0  0  0  0
    0.4030   13.2261    0.0000 O   0  0  0  0  0  0  0  0  0  0  0  0
   17.2656    3.6200    0.0000 O   0  0  0  0  0  0  0  0  0  0  0  0
   15.2656    3.6200    0.0000 O   0  0  0  0  0  0  0  0  0  0  0  0
   21.9141   12.1660    0.0000 N   0  3  3  0  0  0  0  0  0  0  0  0
   11.4141   18.2282    0.0000 N   0  3  3  0  0  0  0  0  0  0  0  0
   10.5481   18.7282    0.0000 C   0  0  3  0  0  0  0  0  0  0  0  0
   22.7801   11.6660    0.0000 C   0  0  3  0  0  0  0  0  0  0  0  0
   12.2801   18.7282    0.0000 C   0  0  0  0  0  0  0  0  0  0  0  0
   21.9141   13.1660    0.0000 C   0  0  0  0  0  0  0  0  0  0  0  0
   11.9141   17.3621    0.0000 C   0  0  0  0  0  0  0  0  0  0  0  0
   20.9141   12.1660    0.0000 C   0  0  0  0  0  0  0  0  0  0  0  0
   23.6461   12.1660    0.0000 C   0  0  0  0  0  0  0  0  0  0  0  0
   10.5481   19.7282    0.0000 C   0  0  0  0  0  0  0  0  0  0  0  0
   12.2801   19.7282    0.0000 C   0  0  0  0  0  0  0  0  0  0  0  0
   22.7801   13.6660    0.0000 C   0  0  0  0  0  0  0  0  0  0  0  0
   10.9141   17.3621    0.0000 C   0  0  0  0  0  0  0  0  0  0  0  0
   21.4141   11.3000    0.0000 C   0  0  0  0  0  0  0  0  0  0  0  0
    9.6820   18.2282    0.0000 C   0  0  0  0  0  0  0  0  0  0  0  0
   22.7801   10.6660    0.0000 C   0  0  0  0  0  0  0  0  0  0  0  0
   11.4141   20.2282    0.0000 C   0  0  0  0  0  0  0  0  0  0  0  0
   23.6461   13.1660    0.0000 C   0  0  0  0  0  0  0  0  0  0  0  0
   20.4141   13.0320    0.0000 C   0  0  0  0  0  0  0  0  0  0  0  0
   12.9141   17.3621    0.0000 C   0  0  0  0  0  0  0  0  0  0  0  0
   24.5401   11.6313    0.0000 C   0  0  0  0  0  0  0  0  0  0  0  0
    9.6381   20.2350    0.0000 C   0  0  0  0  0  0  0  0  0  0  0  0
    8.8160   18.7282    0.0000 C   0  0  0  0  0  0  0  0  0  0  0  0
   23.6461   10.1660    0.0000 C   0  0  0  0  0  0  0  0  0  0  0  0
   24.5401   13.7006    0.0000 C   0  0  0  0  0  0  0  0  0  0  0  0
   11.4301   21.2697    0.0000 C   0  0  0  0  0  0  0  0  0  0  0  0
   25.4461   12.1452    0.0000 C   0  0  0  0  0  0  0  0  0  0  0  0
    9.6300   21.2766    0.0000 C   0  0  0  0  0  0  0  0  0  0  0  0
   25.4461   13.1868    0.0000 C   0  0  0  0  0  0  0  0  0  0  0  0
   10.5321   21.7974    0.0000 C   0  0  0  0  0  0  0  0  0  0  0  0
   13.4141   16.4961    0.0000 C   0  0  0  0  0  0  0  0  0  0  0  0
   19.4141   13.0320    0.0000 C   0  0  0  0  0  0  0  0  0  0  0  0
   23.6461    9.1660    0.0000 C   0  0  0  0  0  0  0  0  0  0  0  0
    8.8160   19.7282    0.0000 C   0  0  0  0  0  0  0  0  0  0  0  0
    7.9500   18.2282    0.0000 C   0  0  0  0  0  0  0  0  0  0  0  0
   24.5122   10.6660    0.0000 C   0  0  0  0  0  0  0  0  0  0  0  0
   24.5122    8.6660    0.0000 C   0  0  0  0  0  0  0  0  0  0  0  0
    7.9500   20.2282    0.0000 C   0  0  0  0  0  0  0  0  0  0  0  0
    7.0840   18.7282    0.0000 C   0  0  0  0  0  0  0  0  0  0  0  0
   25.3782   10.1660    0.0000 C   0  0  0  0  0  0  0  0  0  0  0  0
    7.0840   19.7282    0.0000 C   0  0  0  0  0  0  0  0  0  0  0  0
   25.3782    9.1660    0.0000 C   0  0  0  0  0  0  0  0  0  0  0  0
   17.9141   13.8980    0.0000 C   0  0  0  0  0  0  0  0  0  0  0  0
   14.9141   15.6301    0.0000 C   0  0  0  0  0  0  0  0  0  0  0  0
   17.4141   14.7641    0.0000 C   0  0  0  0  0  0  0  0  0  0  0  0
   15.9141   15.6301    0.0000 C   0  0  0  0  0  0  0  0  0  0  0  0
   27.1782   12.1385    0.0000 C   0  0  0  0  0  0  0  0  0  0  0  0
    8.7582   22.7733    0.0000 C   0  0  0  0  0  0  0  0  0  0  0  0
   16.4141   14.7641    0.0000 C   0  0  0  0  0  0  0  0  0  0  0  0
   26.3064   14.6901    0.0000 C   0  0  0  0  0  0  0  0  0  0  0  0
   11.4039   23.2941    0.0000 C   0  0  0  0  0  0  0  0  0  0  0  0
   23.6461    7.1660    0.0000 C   0  0  0  0  0  0  0  0  0  0  0  0
    7.0840   21.7282    0.0000 C   0  0  0  0  0  0  0  0  0  0  0  0
   26.2442    7.6660    0.0000 C   0  0  0  0  0  0  0  0  0  0  0  0
    5.3519   19.7282    0.0000 C   0  0  0  0  0  0  0  0  0  0  0  0
   16.2656    2.6200    0.0000 C   0  0  0  0  0  0  0  0  0  0  0  0
    1.4030   12.2261    0.0000 C   0  0  0  0  0  0  0  0  0  0  0  0
   15.3996    2.1200    0.0000 C   0  0  0  0  0  0  0  0  0  0  0  0
    0.5369   11.7261    0.0000 C   0  0  0  0  0  0  0  0  0  0  0  0
   17.1317    2.1200    0.0000 C   0  0  0  0  0  0  0  0  0  0  0  0
    2.2690   11.7261    0.0000 C   0  0  0  0  0  0  0  0  0  0  0  0
    0.5369   10.7261    0.0000 C   0  0  0  0  0  0  0  0  0  0  0  0
   15.3996    1.1200    0.0000 C   0  0  0  0  0  0  0  0  0  0  0  0
    2.2690   10.7261    0.0000 C   0  0  0  0  0  0  0  0  0  0  0  0
   17.1317    1.1200    0.0000 C   0  0  0  0  0  0  0  0  0  0  0  0
   16.2656    0.6200    0.0000 C   0  0  0  0  0  0  0  0  0  0  0  0
    1.4030   10.2261    0.0000 C   0  0  0  0  0  0  0  0  0  0  0  0
   10.5481   18.1082    0.0000 H   0  0  0  0  0  0  0  0  0  0  0  0
   22.2432   11.3560    0.0000 H   0  0  0  0  0  0  0  0  0  0  0  0
   21.7020   13.7486    0.0000 H   0  0  0  0  0  0  0  0  0  0  0  0
   21.3035   13.0583    0.0000 H   0  0  0  0  0  0  0  0  0  0  0  0
   12.4922   18.1456    0.0000 H   0  0  0  0  0  0  0  0  0  0  0  0
   12.8907   18.8358    0.0000 H   0  0  0  0  0  0  0  0  0  0  0  0
   11.3315   17.1501    0.0000 H   0  0  0  0  0  0  0  0  0  0  0  0
   12.0217   16.7516    0.0000 H   0  0  0  0  0  0  0  0  0  0  0  0
   20.3315   11.9539    0.0000 H   0  0  0  0  0  0  0  0  0  0  0  0
   21.0217   11.5554    0.0000 H   0  0  0  0  0  0  0  0  0  0  0  0
   23.1786   14.1409    0.0000 H   0  0  0  0  0  0  0  0  0  0  0  0
   12.8907   19.6205    0.0000 H   0  0  0  0  0  0  0  0  0  0  0  0
   12.4922   20.3108    0.0000 H   0  0  0  0  0  0  0  0  0  0  0  0
   22.3816   14.1409    0.0000 H   0  0  0  0  0  0  0  0  0  0  0  0
   20.8771   11.6100    0.0000 H   0  0  0  0  0  0  0  0  0  0  0  0
   21.1041   10.7630    0.0000 H   0  0  0  0  0  0  0  0  0  0  0  0
   21.9510   10.9900    0.0000 H   0  0  0  0  0  0  0  0  0  0  0  0
   10.3771   17.6721    0.0000 H   0  0  0  0  0  0  0  0  0  0  0  0
   10.6041   16.8252    0.0000 H   0  0  0  0  0  0  0  0  0  0  0  0
   11.4510   17.0521    0.0000 H   0  0  0  0  0  0  0  0  0  0  0  0
    9.2835   17.7532    0.0000 H   0  0  0  0  0  0  0  0  0  0  0  0
   10.0806   17.7532    0.0000 H   0  0  0  0  0  0  0  0  0  0  0  0
   22.1695   10.7736    0.0000 H   0  0  0  0  0  0  0  0  0  0  0  0
   22.5681   10.0834    0.0000 H   0  0  0  0  0  0  0  0  0  0  0  0
   13.4967   17.5742    0.0000 H   0  0  0  0  0  0  0  0  0  0  0  0
   12.8064   17.9727    0.0000 H   0  0  0  0  0  0  0  0  0  0  0  0
   20.9967   13.2441    0.0000 H   0  0  0  0  0  0  0  0  0  0  0  0
   20.3064   13.6426    0.0000 H   0  0  0  0  0  0  0  0  0  0  0  0
   24.5329   11.0114    0.0000 H   0  0  0  0  0  0  0  0  0  0  0  0
    9.1047   19.9188    0.0000 H   0  0  0  0  0  0  0  0  0  0  0  0
   11.9706   21.5734    0.0000 H   0  0  0  0  0  0  0  0  0  0  0  0
   24.5329   14.3206    0.0000 H   0  0  0  0  0  0  0  0  0  0  0  0
    9.3530   20.0382    0.0000 H   0  0  0  0  0  0  0  0  0  0  0  0
   23.1092    8.8560    0.0000 H   0  0  0  0  0  0  0  0  0  0  0  0
    7.9500   17.6082    0.0000 H   0  0  0  0  0  0  0  0  0  0  0  0
   24.5122   11.2860    0.0000 H   0  0  0  0  0  0  0  0  0  0  0  0
    6.5470   18.4182    0.0000 H   0  0  0  0  0  0  0  0  0  0  0  0
   25.9151   10.4760    0.0000 H   0  0  0  0  0  0  0  0  0  0  0  0
   17.3315   13.6860    0.0000 H   0  0  0  0  0  0  0  0  0  0  0  0
   18.0217   13.2875    0.0000 H   0  0  0  0  0  0  0  0  0  0  0  0
   14.3315   15.4180    0.0000 H   0  0  0  0  0  0  0  0  0  0  0  0
   15.0217   15.0195    0.0000 H   0  0  0  0  0  0  0  0  0  0  0  0
   17.9967   14.9761    0.0000 H   0  0  0  0  0  0  0  0  0  0  0  0
   17.3064   15.3746    0.0000 H   0  0  0  0  0  0  0  0  0  0  0  0
   16.4967   15.8421    0.0000 H   0  0  0  0  0  0  0  0  0  0  0  0
   15.8064   16.2407    0.0000 H   0  0  0  0  0  0  0  0  0  0  0  0
   27.4861   11.6004    0.0000 H   0  0  0  0  0  0  0  0  0  0  0  0
   27.7163   12.4464    0.0000 H   0  0  0  0  0  0  0  0  0  0  0  0
   26.8703   12.6766    0.0000 H   0  0  0  0  0  0  0  0  0  0  0  0
    9.3782   22.7757    0.0000 H   0  0  0  0  0  0  0  0  0  0  0  0
    8.7558   23.3933    0.0000 H   0  0  0  0  0  0  0  0  0  0  0  0
    8.1382   22.7709    0.0000 H   0  0  0  0  0  0  0  0  0  0  0  0
   15.8315   14.5520    0.0000 H   0  0  0  0  0  0  0  0  0  0  0  0
   16.5217   14.1535    0.0000 H   0  0  0  0  0  0  0  0  0  0  0  0
   26.9264   14.6925    0.0000 H   0  0  0  0  0  0  0  0  0  0  0  0
   26.3040   15.3101    0.0000 H   0  0  0  0  0  0  0  0  0  0  0  0
   25.6864   14.6877    0.0000 H   0  0  0  0  0  0  0  0  0  0  0  0
   11.7118   22.7559    0.0000 H   0  0  0  0  0  0  0  0  0  0  0  0
   11.9420   23.6020    0.0000 H   0  0  0  0  0  0  0  0  0  0  0  0
   11.0960   23.8322    0.0000 H   0  0  0  0  0  0  0  0  0  0  0  0
   23.3361    7.7029    0.0000 H   0  0  0  0  0  0  0  0  0  0  0  0
   23.1092    6.8560    0.0000 H   0  0  0  0  0  0  0  0  0  0  0  0
    7.3940   22.2651    0.0000 H   0  0  0  0  0  0  0  0  0  0  0  0
    6.5470   22.0382    0.0000 H   0  0  0  0  0  0  0  0  0  0  0  0
    6.7740   21.1912    0.0000 H   0  0  0  0  0  0  0  0  0  0  0  0
   23.9561    6.6290    0.0000 H   0  0  0  0  0  0  0  0  0  0  0  0
   25.6242    7.6660    0.0000 H   0  0  0  0  0  0  0  0  0  0  0  0
   26.2442    7.0460    0.0000 H   0  0  0  0  0  0  0  0  0  0  0  0
   26.8642    7.6660    0.0000 H   0  0  0  0  0  0  0  0  0  0  0  0
    5.0419   20.2651    0.0000 H   0  0  0  0  0  0  0  0  0  0  0  0
    4.8150   19.4182    0.0000 H   0  0  0  0  0  0  0  0  0  0  0  0
    5.6619   19.1912    0.0000 H   0  0  0  0  0  0  0  0  0  0  0  0
   14.8627    2.4300    0.0000 H   0  0  0  0  0  0  0  0  0  0  0  0
    0.0000   12.0361    0.0000 H   0  0  0  0  0  0  0  0  0  0  0  0
   17.6686    2.4300    0.0000 H   0  0  0  0  0  0  0  0  0  0  0  0
    2.8059   12.0361    0.0000 H   0  0  0  0  0  0  0  0  0  0  0  0
    0.0000   10.4161    0.0000 H   0  0  0  0  0  0  0  0  0  0  0  0
   14.8627    0.8100    0.0000 H   0  0  0  0  0  0  0  0  0  0  0  0
    2.8059   10.4161    0.0000 H   0  0  0  0  0  0  0  0  0  0  0  0
   17.6686    0.8100    0.0000 H   0  0  0  0  0  0  0  0  0  0  0  0
    1.4030    9.6061    0.0000 H   0  0  0  0  0  0  0  0  0  0  0  0
   16.2656    0.0000    0.0000 H   0  0  0  0  0  0  0  0  0  0  0  0
  1 16  1  0  0  0  0
  1 19  2  0  0  0  0
  1 20  2  0  0  0  0
  1 76  1  0  0  0  0
  2 15  1  0  0  0  0
  2 17  2  0  0  0  0
  2 18  2  0  0  0  0
  2 77  1  0  0  0  0
  3 48  1  0  0  0  0
  3 68  1  0  0  0  0
  4 47  1  0  0  0  0
  4 67  1  0  0  0  0
  5 50  1  0  0  0  0
  5 71  1  0  0  0  0
  6 49  1  0  0  0  0
  6 70  1  0  0  0  0
  7 51  1  0  0  0  0
  7 64  1  0  0  0  0
  8 52  1  0  0  0  0
  8 63  1  0  0  0  0
  9 51  2  0  0  0  0
 10 52  2  0  0  0  0
 11 57  1  0  0  0  0
 11 72  1  0  0  0  0
 12 58  1  0  0  0  0
 12 73  1  0  0  0  0
 13 62  1  0  0  0  0
 13 74  1  0  0  0  0
 14 61  1  0  0  0  0
 14 75  1  0  0  0  0
 21 24  1  0  0  0  0
 21 26  1  0  0  0  0
 21 28  1  0  0  0  0
 21 34  1  0  0  0  0
 22 23  1  0  0  0  0
 22 25  1  0  0  0  0
 22 27  1  0  0  0  0
 22 33  1  0  0  0  0
 23 30  1  0  0  0  0
 23 35  1  0  0  0  0
 23 88  1  0  0  0  0
 24 29  1  0  0  0  0
 24 36  1  0  0  0  0
 24 89  1  0  0  0  0
 25 31  1  0  0  0  0
 25 92  1  0  0  0  0
 25 93  1  0  0  0  0
 26 32  1  0  0  0  0
 26 90  1  0  0  0  0
 26 91  1  0  0  0  0
 27 40  1  0  0  0  0
 27 94  1  0  0  0  0
 27 95  1  0  0  0  0
 28 39  1  0  0  0  0
 28 96  1  0  0  0  0
 28 97  1  0  0  0  0
 29 38  1  0  0  0  0
 29 41  2  0  0  0  0
 30 37  1  0  0  0  0
 30 42  2  0  0  0  0
 31 37  1  0  0  0  0
 31 99  1  0  0  0  0
 31100  1  0  0  0  0
 32 38  1  0  0  0  0
 32 98  1  0  0  0  0
 32101  1  0  0  0  0
 33105  1  0  0  0  0
 33106  1  0  0  0  0
 33107  1  0  0  0  0
 34102  1  0  0  0  0
 34103  1  0  0  0  0
 34104  1  0  0  0  0
 35 43  1  0  0  0  0
 35108  1  0  0  0  0
 35109  1  0  0  0  0
 36 44  1  0  0  0  0
 36110  1  0  0  0  0
 36111  1  0  0  0  0
 37 46  2  0  0  0  0
 38 45  2  0  0  0  0
 39 52  1  0  0  0  0
 39114  1  0  0  0  0
 39115  1  0  0  0  0
 40 51  1  0  0  0  0
 40112  1  0  0  0  0
 40113  1  0  0  0  0
 41 47  1  0  0  0  0
 41116  1  0  0  0  0
 42 48  1  0  0  0  0
 42117  1  0  0  0  0
 43 54  2  0  0  0  0
 43 55  1  0  0  0  0
 44 53  2  0  0  0  0
 44 56  1  0  0  0  0
 45 49  1  0  0  0  0
 45119  1  0  0  0  0
 46 50  1  0  0  0  0
 46118  1  0  0  0  0
 47 49  2  0  0  0  0
 48 50  2  0  0  0  0
 53 57  1  0  0  0  0
 53121  1  0  0  0  0
 54 58  1  0  0  0  0
 54120  1  0  0  0  0
 55 59  2  0  0  0  0
 55122  1  0  0  0  0
 56 60  2  0  0  0  0
 56123  1  0  0  0  0
 57 62  2  0  0  0  0
 58 61  2  0  0  0  0
 59 61  1  0  0  0  0
 59124  1  0  0  0  0
 60 62  1  0  0  0  0
 60125  1  0  0  0  0
 63 65  1  0  0  0  0
 63126  1  0  0  0  0
 63127  1  0  0  0  0
 64 66  1  0  0  0  0
 64128  1  0  0  0  0
 64129  1  0  0  0  0
 65 69  1  0  0  0  0
 65130  1  0  0  0  0
 65131  1  0  0  0  0
 66 69  1  0  0  0  0
 66132  1  0  0  0  0
 66133  1  0  0  0  0
 67134  1  0  0  0  0
 67135  1  0  0  0  0
 67136  1  0  0  0  0
 68137  1  0  0  0  0
 68138  1  0  0  0  0
 68139  1  0  0  0  0
 69140  1  0  0  0  0
 69141  1  0  0  0  0
 70142  1  0  0  0  0
 70143  1  0  0  0  0
 70144  1  0  0  0  0
 71145  1  0  0  0  0
 71146  1  0  0  0  0
 71147  1  0  0  0  0
 72148  1  0  0  0  0
 72149  1  0  0  0  0
 72153  1  0  0  0  0
 73150  1  0  0  0  0
 73151  1  0  0  0  0
 73152  1  0  0  0  0
 74154  1  0  0  0  0
 74155  1  0  0  0  0
 74156  1  0  0  0  0
 75157  1  0  0  0  0
 75158  1  0  0  0  0
 75159  1  0  0  0  0
 76 78  2  0  0  0  0
 76 80  1  0  0  0  0
 77 79  2  0  0  0  0
 77 81  1  0  0  0  0
 78 83  1  0  0  0  0
 78160  1  0  0  0  0
 79 82  1  0  0  0  0
 79161  1  0  0  0  0
 80 85  2  0  0  0  0
 80162  1  0  0  0  0
 81 84  2  0  0  0  0
 81163  1  0  0  0  0
 82 87  2  0  0  0  0
 82164  1  0  0  0  0
 83 86  2  0  0  0  0
 83165  1  0  0  0  0
 84 87  1  0  0  0  0
 84166  1  0  0  0  0
 85 86  1  0  0  0  0
 85167  1  0  0  0  0
 86169  1  0  0  0  0
 87168  1  0  0  0  0
M  CHG  4  15  -1  16  -1  21   1  22   1
M  END
> <PUBCHEM_COMPOUND_CID>
47320

> <PUBCHEM_COMPOUND_CANONICALIZED>
1

> <PUBCHEM_CACTVS_COMPLEXITY>
1560

> <PUBCHEM_CACTVS_HBOND_ACCEPTOR>
18

> <PUBCHEM_CACTVS_HBOND_DONOR>
0

> <PUBCHEM_CACTVS_ROTATABLE_BOND>
26

> <PUBCHEM_CACTVS_SUBSKEYS>
AAADcfB/PgBgAAAAAAAAAAAAAAAAAAAAAAA8eMGDAAAAAACxVAAAHgQAAAAADCzh2AYyD4MABAKIAiDSCHDCCEAgIAAIiBkOjIgNJiqEsRuGMCpmwBGKqAew8PsOoAABAAAQQABAAAIAACCAAAAAAAAAAA==

> <PUBCHEM_IUPAC_OPENEYE_NAME>
benzenesulfonate;5-[3-[1-[(3,4-dimethoxyphenyl)methyl]-6,7-dimethoxy-2-methyl-3,4-dihydro-1H-isoquinolin-2-ium-2-yl]propanoyloxy]pentyl 3-[1-[(3,4-dimethoxyphenyl)methyl]-6,7-dimethoxy-2-methyl-3,4-dihydro-1H-isoquinolin-2-ium-2-yl]propanoate

> <PUBCHEM_IUPAC_CAS_NAME>
benzenesulfonate;3-[1-[(3,4-dimethoxyphenyl)methyl]-6,7-dimethoxy-2-methyl-3,4-dihydro-1H-isoquinolin-2-ium-2-yl]propanoic acid 5-[3-[1-[(3,4-dimethoxyphenyl)methyl]-6,7-dimethoxy-2-methyl-3,4-dihydro-1H-isoquinolin-2-ium-2-yl]-1-oxopropoxy]pentyl ester

> <PUBCHEM_IUPAC_NAME>
benzenesulfonate;5-[3-[1-[(3,4-dimethoxyphenyl)methyl]-6,7-dimethoxy-2-methyl-3,4-dihydro-1H-isoquinolin-2-ium-2-yl]propanoyloxy]pentyl 3-[1-[(3,4-dimethoxyphenyl)methyl]-6,7-dimethoxy-2-methyl-3,4-dihydro-1H-isoquinolin-2-ium-2-yl]propanoate

> <PUBCHEM_IUPAC_SYSTEMATIC_NAME>
benzenesulfonate;5-[3-[1-[(3,4-dimethoxyphenyl)methyl]-6,7-dimethoxy-2-methyl-3,4-dihydro-1H-isoquinolin-2-ium-2-yl]propanoyloxy]pentyl 3-[1-[(3,4-dimethoxyphenyl)methyl]-6,7-dimethoxy-2-methyl-3,4-dihydro-1H-isoquinolin-2-ium-2-yl]propanoate

> <PUBCHEM_IUPAC_TRADITIONAL_NAME>
3-(6,7-dimethoxy-2-methyl-1-veratryl-3,4-dihydro-1H-isoquinolin-2-ium-2-yl)propionic acid 5-[3-(6,7-dimethoxy-2-methyl-1-veratryl-3,4-dihydro-1H-isoquinolin-2-ium-2-yl)propanoyloxy]pentyl ester;dibesylate

> <PUBCHEM_IUPAC_INCHI>
InChI=1S/C53H72N2O12.2C6H6O3S/c1-54(22-18-38-32-48(62-7)50(64-9)34-40(38)42(54)28-36-14-16-44(58-3)46(30-36)60-5)24-20-52(56)66-26-12-11-13-27-67-53(57)21-25-55(2)23-19-39-33-49(63-8)51(65-10)35-41(39)43(55)29-37-15-17-45(59-4)47(31-37)61-6;2*7-10(8,9)6-4-2-1-3-5-6/h14-17,30-35,42-43H,11-13,18-29H2,1-10H3;2*1-5H,(H,7,8,9)/q+2;;/p-2

> <PUBCHEM_IUPAC_INCHIKEY>
XXZSQOVSEBAPGS-UHFFFAOYSA-L

> <PUBCHEM_EXACT_MASS>
1242.500406

> <PUBCHEM_MOLECULAR_FORMULA>
C65H82N2O18S2

> <PUBCHEM_MOLECULAR_WEIGHT>
1243.47918

> <PUBCHEM_OPENEYE_CAN_SMILES>
C[N+]1(CCC2=CC(=C(C=C2C1CC3=CC(=C(C=C3)OC)OC)OC)OC)CCC(=O)OCCCCCOC(=O)CC[N+]4(CCC5=CC(=C(C=C5C4CC6=CC(=C(C=C6)OC)OC)OC)OC)C.C1=CC=C(C=C1)S(=O)(=O)[O-].C1=CC=C(C=C1)S(=O)(=O)[O-]

> <PUBCHEM_OPENEYE_ISO_SMILES>
C[N+]1(CCC2=CC(=C(C=C2C1CC3=CC(=C(C=C3)OC)OC)OC)OC)CCC(=O)OCCCCCOC(=O)CC[N+]4(CCC5=CC(=C(C=C5C4CC6=CC(=C(C=C6)OC)OC)OC)OC)C.C1=CC=C(C=C1)S(=O)(=O)[O-].C1=CC=C(C=C1)S(=O)(=O)[O-]

> <PUBCHEM_CACTVS_TPSA>
258

> <PUBCHEM_MONOISOTOPIC_WEIGHT>
1242.500406

> <PUBCHEM_TOTAL_CHARGE>
0

> <PUBCHEM_HEAVY_ATOM_COUNT>
87

> <PUBCHEM_ATOM_DEF_STEREO_COUNT>
0

> <PUBCHEM_ATOM_UDEF_STEREO_COUNT>
4

> <PUBCHEM_BOND_DEF_STEREO_COUNT>
0

> <PUBCHEM_BOND_UDEF_STEREO_COUNT>
0

> <PUBCHEM_ISOTOPIC_ATOM_COUNT>
0

> <PUBCHEM_COMPONENT_COUNT>
3

> <PUBCHEM_CACTVS_TAUTO_COUNT>
1

> <PUBCHEM_COORDINATE_TYPE>
1
5
255

> <PUBCHEM_BONDANNOTATIONS>
21  34  3
22  33  3
23  35  3
24  36  3
29  38  8
29  41  8
30  37  8
30  42  8
37  46  8
38  45  8
41  47  8
42  48  8
43  54  8
43  55  8
44  53  8
44  56  8
45  49  8
46  50  8
47  49  8
48  50  8
53  57  8
54  58  8
55  59  8
56  60  8
57  62  8
58  61  8
59  61  8
60  62  8
76  78  8
76  80  8
77  79  8
77  81  8
78  83  8
79  82  8
80  85  8
81  84  8
82  87  8
83  86  8
84  87  8
85  86  8

$$$$
