4736
  -OEChem-12171208092D

 48 50  0     1  0  0  0  0  0999 V2000
    3.1608   -3.2790    0.0000 O   0  0  0  0  0  0  0  0  0  0  0  0
    7.4242    1.1294    0.0000 N   0  0  3  0  0  0  0  0  0  0  0  0
    5.3007    0.6111    0.0000 C   0  0  3  0  0  0  0  0  0  0  0  0
    4.8229    2.5596    0.0000 C   0  0  3  0  0  0  0  0  0  0  0  0
    5.5596    1.5770    0.0000 C   0  0  3  0  0  0  0  0  0  0  0  0
    7.0054   -0.4335    0.0000 C   0  0  0  0  0  0  0  0  0  0  0  0
    2.9566    0.7692    0.0000 C   0  0  0  0  0  0  0  0  0  0  0  0
    3.7656   -0.6320    0.0000 C   0  0  0  0  0  0  0  0  0  0  0  0
    7.7826    0.1958    0.0000 C   0  0  0  0  0  0  0  0  0  0  0  0
    2.8520   -0.2253    0.0000 C   0  0  0  0  0  0  0  0  0  0  0  0
    5.0419   -0.3548    0.0000 C   0  0  0  0  0  0  0  0  0  0  0  0
    4.3229    3.4257    0.0000 C   0  0  0  0  0  0  0  0  0  0  0  0
    7.9688    1.9680    0.0000 C   0  0  0  0  0  0  0  0  0  0  0  0
    3.8904   -1.6662    0.0000 C   0  0  0  0  0  0  0  0  0  0  0  0
    2.0000   -0.8245    0.0000 C   0  0  0  0  0  0  0  0  0  0  0  0
    3.0525   -2.2849    0.0000 C   0  0  0  0  0  0  0  0  0  0  0  0
    2.1009   -1.8612    0.0000 C   0  0  0  0  0  0  0  0  0  0  0  0
    8.9675    1.9157    0.0000 C   0  0  0  0  0  0  0  0  0  0  0  0
    9.5121    2.7544    0.0000 C   0  0  0  0  0  0  0  0  0  0  0  0
   10.5107    2.7020    0.0000 C   0  0  0  0  0  0  0  0  0  0  0  0
    9.0581    3.6454    0.0000 C   0  0  0  0  0  0  0  0  0  0  0  0
    5.3404    2.9012    0.0000 H   0  0  0  0  0  0  0  0  0  0  0  0
    5.5798    0.9574    0.0000 H   0  0  0  0  0  0  0  0  0  0  0  0
    6.6237   -0.9221    0.0000 H   0  0  0  0  0  0  0  0  0  0  0  0
    7.4476   -0.8681    0.0000 H   0  0  0  0  0  0  0  0  0  0  0  0
    2.8543    1.3807    0.0000 H   0  0  0  0  0  0  0  0  0  0  0  0
    2.3368    0.7503    0.0000 H   0  0  0  0  0  0  0  0  0  0  0  0
    8.1203   -0.3242    0.0000 H   0  0  0  0  0  0  0  0  0  0  0  0
    8.3350    0.4773    0.0000 H   0  0  0  0  0  0  0  0  0  0  0  0
    4.4430   -0.1944    0.0000 H   0  0  0  0  0  0  0  0  0  0  0  0
    4.8814   -0.9537    0.0000 H   0  0  0  0  0  0  0  0  0  0  0  0
    5.6408   -0.5153    0.0000 H   0  0  0  0  0  0  0  0  0  0  0  0
    4.8599    3.7357    0.0000 H   0  0  0  0  0  0  0  0  0  0  0  0
    4.0129    3.9626    0.0000 H   0  0  0  0  0  0  0  0  0  0  0  0
    3.7860    3.1157    0.0000 H   0  0  0  0  0  0  0  0  0  0  0  0
    8.1083    2.5721    0.0000 H   0  0  0  0  0  0  0  0  0  0  0  0
    7.3981    2.2103    0.0000 H   0  0  0  0  0  0  0  0  0  0  0  0
    4.4597   -1.9118    0.0000 H   0  0  0  0  0  0  0  0  0  0  0  0
    1.4366   -0.5658    0.0000 H   0  0  0  0  0  0  0  0  0  0  0  0
    1.5979   -2.2237    0.0000 H   0  0  0  0  0  0  0  0  0  0  0  0
    9.2490    1.3633    0.0000 H   0  0  0  0  0  0  0  0  0  0  0  0
    2.6606   -3.6454    0.0000 H   0  0  0  0  0  0  0  0  0  0  0  0
   10.4783    2.0829    0.0000 H   0  0  0  0  0  0  0  0  0  0  0  0
   11.1299    2.6696    0.0000 H   0  0  0  0  0  0  0  0  0  0  0  0
   10.5432    3.3212    0.0000 H   0  0  0  0  0  0  0  0  0  0  0  0
    9.6106    3.9268    0.0000 H   0  0  0  0  0  0  0  0  0  0  0  0
    8.7767    4.1978    0.0000 H   0  0  0  0  0  0  0  0  0  0  0  0
    8.5057    3.3639    0.0000 H   0  0  0  0  0  0  0  0  0  0  0  0
  1 16  1  0  0  0  0
  1 42  1  0  0  0  0
  2  5  1  0  0  0  0
  2  9  1  0  0  0  0
  2 13  1  0  0  0  0
  3  4  1  0  0  0  0
  3  6  1  0  0  0  0
  3  8  1  0  0  0  0
  3 11  1  0  0  0  0
  4  5  1  0  0  0  0
  4 12  1  0  0  0  0
  4 22  1  0  0  0  0
  5  7  1  0  0  0  0
  5 23  1  0  0  0  0
  6  9  1  0  0  0  0
  6 24  1  0  0  0  0
  6 25  1  0  0  0  0
  7 10  1  0  0  0  0
  7 26  1  0  0  0  0
  7 27  1  0  0  0  0
  8 10  2  0  0  0  0
  8 14  1  0  0  0  0
  9 28  1  0  0  0  0
  9 29  1  0  0  0  0
 10 15  1  0  0  0  0
 11 30  1  0  0  0  0
 11 31  1  0  0  0  0
 11 32  1  0  0  0  0
 12 33  1  0  0  0  0
 12 34  1  0  0  0  0
 12 35  1  0  0  0  0
 13 18  1  0  0  0  0
 13 36  1  0  0  0  0
 13 37  1  0  0  0  0
 14 16  2  0  0  0  0
 14 38  1  0  0  0  0
 15 17  2  0  0  0  0
 15 39  1  0  0  0  0
 16 17  1  0  0  0  0
 17 40  1  0  0  0  0
 18 19  2  0  0  0  0
 18 41  1  0  0  0  0
 19 20  1  0  0  0  0
 19 21  1  0  0  0  0
 20 43  1  0  0  0  0
 20 44  1  0  0  0  0
 20 45  1  0  0  0  0
 21 46  1  0  0  0  0
 21 47  1  0  0  0  0
 21 48  1  0  0  0  0
M  END
> <PUBCHEM_COMPOUND_CID>
4736

> <PUBCHEM_COMPOUND_CANONICALIZED>
1

> <PUBCHEM_CACTVS_COMPLEXITY>
414

> <PUBCHEM_CACTVS_HBOND_ACCEPTOR>
2

> <PUBCHEM_CACTVS_HBOND_DONOR>
1

> <PUBCHEM_CACTVS_ROTATABLE_BOND>
2

> <PUBCHEM_CACTVS_SUBSKEYS>
AAADceB6IAAAAAAAAAAAAAAAAAAAAAAAAAA8YIAAAAAWAADBAAAAHgAACAAADyzBmAQyBoMAAgCAAiBCAACCAAAgIAAIiAAOCIgIJiKCkROEcAAkwBGImAeQwPAPoAABAAAQAADQAAaAACQAAAAAAAAAAA==

> <PUBCHEM_IUPAC_INCHI>
InChI=1S/C19H27NO/c1-13(2)7-9-20-10-8-19(4)14(3)18(20)11-15-5-6-16(21)12-17(15)19/h5-7,12,14,18,21H,8-11H2,1-4H3

> <PUBCHEM_IUPAC_INCHIKEY>
VOKSWYLNZZRQPF-UHFFFAOYSA-N

> <PUBCHEM_XLOGP3>
3.3

> <PUBCHEM_EXACT_MASS>
285.209264

> <PUBCHEM_MOLECULAR_FORMULA>
C19H27NO

> <PUBCHEM_MOLECULAR_WEIGHT>
285.42378

> <PUBCHEM_OPENEYE_CAN_SMILES>
CC1C2CC3=C(C1(CCN2CC=C(C)C)C)C=C(C=C3)O

> <PUBCHEM_OPENEYE_ISO_SMILES>
CC1C2CC3=C(C1(CCN2CC=C(C)C)C)C=C(C=C3)O

> <PUBCHEM_CACTVS_TPSA>
23.5

> <PUBCHEM_MONOISOTOPIC_WEIGHT>
285.209264

> <PUBCHEM_TOTAL_CHARGE>
0

> <PUBCHEM_HEAVY_ATOM_COUNT>
21

> <PUBCHEM_ATOM_DEF_STEREO_COUNT>
0

> <PUBCHEM_ATOM_UDEF_STEREO_COUNT>
3

> <PUBCHEM_BOND_DEF_STEREO_COUNT>
0

> <PUBCHEM_BOND_UDEF_STEREO_COUNT>
0

> <PUBCHEM_ISOTOPIC_ATOM_COUNT>
0

> <PUBCHEM_COMPONENT_COUNT>
1

> <PUBCHEM_CACTVS_TAUTO_COUNT>
3

> <PUBCHEM_COORDINATE_TYPE>
1
5
255

> <PUBCHEM_BONDANNOTATIONS>
10  15  8
14  16  8
15  17  8
16  17  8
3  11  3
4  12  3
5  7  3
8  10  8
8  14  8

$$$$
