477468
  -OEChem-12171208242D

160166  0     1  0  0  0  0  0999 V2000
    3.2286   -4.5511    0.0000 S   0  0  0  0  0  0  0  0  0  0  0  0
    8.0059    1.5030    0.0000 O   0  0  0  0  0  0  0  0  0  0  0  0
    8.6128   -1.6013    0.0000 O   0  0  0  0  0  0  0  0  0  0  0  0
    8.0109   -2.2438    0.0000 O   0  0  0  0  0  0  0  0  0  0  0  0
   10.8565   -4.2260    0.0000 O   0  0  0  0  0  0  0  0  0  0  0  0
   13.3865   -3.4862    0.0000 O   0  0  0  0  0  0  0  0  0  0  0  0
    5.7787    0.6222    0.0000 O   0  0  0  0  0  0  0  0  0  0  0  0
    7.1688    1.5618    0.0000 O   0  0  0  0  0  0  0  0  0  0  0  0
    9.7046   -0.9729    0.0000 O   0  0  0  0  0  0  0  0  0  0  0  0
   12.4857    0.2309    0.0000 O   0  0  0  0  0  0  0  0  0  0  0  0
    7.8053   -0.7040    0.0000 O   0  0  0  0  0  0  0  0  0  0  0  0
    6.7429   -2.8275    0.0000 O   0  0  0  0  0  0  0  0  0  0  0  0
   10.4947   -1.3736    0.0000 O   0  0  0  0  0  0  0  0  0  0  0  0
    7.0989   -3.3033    0.0000 O   0  0  0  0  0  0  0  0  0  0  0  0
    9.1016    2.2129    0.0000 O   0  0  0  0  0  0  0  0  0  0  0  0
   11.1286   -5.9365    0.0000 O   0  0  0  0  0  0  0  0  0  0  0  0
   11.2480   -0.7894    0.0000 O   0  0  0  0  0  0  0  0  0  0  0  0
    4.2201   -4.4206    0.0000 O   0  0  0  0  0  0  0  0  0  0  0  0
    3.0026   -2.8338    0.0000 O   0  0  0  0  0  0  0  0  0  0  0  0
    2.2372   -4.6817    0.0000 O   0  0  0  0  0  0  0  0  0  0  0  0
    3.3592   -5.5426    0.0000 O   0  0  0  0  0  0  0  0  0  0  0  0
    3.0982   -3.5597    0.0000 O   0  0  0  0  0  0  0  0  0  0  0  0
   14.8981    4.4768    0.0000 O   0  0  0  0  0  0  0  0  0  0  0  0
   19.5560    4.3954    0.0000 O   0  0  0  0  0  0  0  0  0  0  0  0
    9.2428   -1.3778    0.0000 N   0  0  0  0  0  0  0  0  0  0  0  0
   11.9512   -1.3438    0.0000 N   0  0  0  0  0  0  0  0  0  0  0  0
    6.6448   -0.8778    0.0000 N   0  0  0  0  0  0  0  0  0  0  0  0
    8.2391   -3.6064    0.0000 N   0  0  0  0  0  0  0  0  0  0  0  0
    9.5710   -2.4992    0.0000 N   0  0  0  0  0  0  0  0  0  0  0  0
   10.5675    1.0881    0.0000 N   0  0  0  0  0  0  0  0  0  0  0  0
   10.3389    0.2938    0.0000 N   0  0  0  0  0  0  0  0  0  0  0  0
    9.7833   -7.0274    0.0000 N   0  0  0  0  0  0  0  0  0  0  0  0
   14.0071    4.0228    0.0000 N   0  0  0  0  0  0  0  0  0  0  0  0
    9.9498    0.8466    0.0000 C   0  0  2  0  0  0  0  0  0  0  0  0
    8.3768   -0.8778    0.0000 C   0  0  1  0  0  0  0  0  0  0  0  0
    8.4697    0.6171    0.0000 C   0  0  1  0  0  0  0  0  0  0  0  0
   10.4911   -0.5500    0.0000 C   0  0  0  0  0  0  0  0  0  0  0  0
   10.1234    1.8314    0.0000 C   0  0  0  0  0  0  0  0  0  0  0  0
    9.2428   -2.3778    0.0000 C   0  0  0  0  0  0  0  0  0  0  0  0
    7.5108   -1.3778    0.0000 C   0  0  0  0  0  0  0  0  0  0  0  0
    9.2391   -3.6064    0.0000 C   0  0  2  0  0  0  0  0  0  0  0  0
   11.2441   -2.0509    0.0000 C   0  0  1  0  0  0  0  0  0  0  0  0
   11.6977   -2.9354    0.0000 C   0  0  0  0  0  0  0  0  0  0  0  0
    9.8689   -4.3831    0.0000 C   0  0  1  0  0  0  0  0  0  0  0  0
   12.6794   -2.7791    0.0000 C   0  0  2  0  0  0  0  0  0  0  0  0
   12.8357   -1.7974    0.0000 C   0  0  0  0  0  0  0  0  0  0  0  0
    6.6448    0.1222    0.0000 C   0  0  1  0  0  0  0  0  0  0  0  0
    8.6051   -2.2403    0.0000 C   0  0  2  0  0  0  0  0  0  0  0  0
   10.2781   -1.7920    0.0000 C   0  0  0  0  0  0  0  0  0  0  0  0
   11.6923   -0.3778    0.0000 C   0  0  0  0  0  0  0  0  0  0  0  0
    7.7391   -2.7403    0.0000 C   0  0  0  0  0  0  0  0  0  0  0  0
    7.5108    0.6222    0.0000 C   0  0  1  0  0  0  0  0  0  0  0  0
    9.5112   -5.3169    0.0000 C   0  0  0  0  0  0  0  0  0  0  0  0
   10.8263    0.1222    0.0000 C   0  0  2  0  0  0  0  0  0  0  0  0
    7.7617   -1.7030    0.0000 C   0  0  1  0  0  0  0  0  0  0  0  0
    8.3768    0.1222    0.0000 C   0  0  0  0  0  0  0  0  0  0  0  0
    9.3428    0.3810    0.0000 C   0  0  1  0  0  0  0  0  0  0  0  0
   10.0330   -0.4866    0.0000 C   0  0  1  0  0  0  0  0  0  0  0  0
    6.9683   -2.3118    0.0000 C   0  0  2  0  0  0  0  0  0  0  0  0
    9.6016    1.3469    0.0000 C   0  0  0  0  0  0  0  0  0  0  0  0
   10.1410   -6.0936    0.0000 C   0  0  0  0  0  0  0  0  0  0  0  0
    9.0567   -0.2702    0.0000 C   0  0  0  0  0  0  0  0  0  0  0  0
    5.9769   -2.4422    0.0000 C   0  0  0  0  0  0  0  0  0  0  0  0
   11.3351    0.2067    0.0000 C   0  0  0  0  0  0  0  0  0  0  0  0
    5.5942   -3.3662    0.0000 C   0  0  0  0  0  0  0  0  0  0  0  0
    5.3682   -1.6491    0.0000 C   0  0  0  0  0  0  0  0  0  0  0  0
    4.6028   -3.4967    0.0000 C   0  0  0  0  0  0  0  0  0  0  0  0
    4.3767   -1.7796    0.0000 C   0  0  0  0  0  0  0  0  0  0  0  0
   12.0423    0.9138    0.0000 C   0  0  0  0  0  0  0  0  0  0  0  0
    3.9941   -2.7033    0.0000 C   0  0  0  0  0  0  0  0  0  0  0  0
   13.0082    0.6550    0.0000 C   0  0  0  0  0  0  0  0  0  0  0  0
   11.7834    1.8797    0.0000 C   0  0  0  0  0  0  0  0  0  0  0  0
   13.7153    1.3621    0.0000 C   0  0  0  0  0  0  0  0  0  0  0  0
   12.4905    2.5868    0.0000 C   0  0  0  0  0  0  0  0  0  0  0  0
   13.4565    2.3280    0.0000 C   0  0  0  0  0  0  0  0  0  0  0  0
   14.1636    3.0351    0.0000 C   0  0  0  0  0  0  0  0  0  0  0  0
   15.1513    2.8787    0.0000 C   0  0  0  0  0  0  0  0  0  0  0  0
   15.6052    3.7697    0.0000 C   0  0  0  0  0  0  0  0  0  0  0  0
   16.5929    3.9261    0.0000 C   0  0  0  0  0  0  0  0  0  0  0  0
   17.2223    3.1490    0.0000 C   0  0  0  0  0  0  0  0  0  0  0  0
   16.9513    4.8597    0.0000 C   0  0  0  0  0  0  0  0  0  0  0  0
   18.2099    3.3054    0.0000 C   0  0  0  0  0  0  0  0  0  0  0  0
   17.9390    5.0161    0.0000 C   0  0  0  0  0  0  0  0  0  0  0  0
   18.5683    4.2390    0.0000 C   0  0  0  0  0  0  0  0  0  0  0  0
   19.9144    5.3290    0.0000 C   0  0  0  0  0  0  0  0  0  0  0  0
   20.9021    5.4854    0.0000 C   0  0  0  0  0  0  0  0  0  0  0  0
   21.2604    6.4190    0.0000 C   0  0  0  0  0  0  0  0  0  0  0  0
   22.2481    6.5754    0.0000 C   0  0  0  0  0  0  0  0  0  0  0  0
   22.6065    7.5090    0.0000 C   0  0  0  0  0  0  0  0  0  0  0  0
   10.5668    0.9070    0.0000 H   0  0  0  0  0  0  0  0  0  0  0  0
    7.6542   -0.4302    0.0000 H   0  0  0  0  0  0  0  0  0  0  0  0
    7.8633    0.4878    0.0000 H   0  0  0  0  0  0  0  0  0  0  0  0
   10.7957   -1.0900    0.0000 H   0  0  0  0  0  0  0  0  0  0  0  0
   11.0516   -0.2849    0.0000 H   0  0  0  0  0  0  0  0  0  0  0  0
   10.7340    1.7238    0.0000 H   0  0  0  0  0  0  0  0  0  0  0  0
   10.2311    2.4420    0.0000 H   0  0  0  0  0  0  0  0  0  0  0  0
    9.5129    1.9391    0.0000 H   0  0  0  0  0  0  0  0  0  0  0  0
    8.8734   -4.3737    0.0000 H   0  0  0  0  0  0  0  0  0  0  0  0
   10.7100   -2.7121    0.0000 H   0  0  0  0  0  0  0  0  0  0  0  0
    8.3378    2.0267    0.0000 H   0  0  0  0  0  0  0  0  0  0  0  0
   11.1193   -3.1588    0.0000 H   0  0  0  0  0  0  0  0  0  0  0  0
   11.8590   -3.5341    0.0000 H   0  0  0  0  0  0  0  0  0  0  0  0
   10.0907   -3.8041    0.0000 H   0  0  0  0  0  0  0  0  0  0  0  0
   12.4880   -3.3688    0.0000 H   0  0  0  0  0  0  0  0  0  0  0  0
   13.4344   -1.9587    0.0000 H   0  0  0  0  0  0  0  0  0  0  0  0
   13.0591   -1.2190    0.0000 H   0  0  0  0  0  0  0  0  0  0  0  0
    6.1078   -1.1878    0.0000 H   0  0  0  0  0  0  0  0  0  0  0  0
    7.9291   -4.1433    0.0000 H   0  0  0  0  0  0  0  0  0  0  0  0
    6.6448    0.7422    0.0000 H   0  0  0  0  0  0  0  0  0  0  0  0
    8.9474   -1.4623    0.0000 H   0  0  0  0  0  0  0  0  0  0  0  0
    7.9858    1.0207    0.0000 H   0  0  0  0  0  0  0  0  0  0  0  0
    8.9795   -4.9979    0.0000 H   0  0  0  0  0  0  0  0  0  0  0  0
    9.1047   -5.7851    0.0000 H   0  0  0  0  0  0  0  0  0  0  0  0
   10.0214    0.3954    0.0000 H   0  0  0  0  0  0  0  0  0  0  0  0
    9.7315   -3.0980    0.0000 H   0  0  0  0  0  0  0  0  0  0  0  0
    7.2118   -1.4167    0.0000 H   0  0  0  0  0  0  0  0  0  0  0  0
    7.9384   -0.3162    0.0000 H   0  0  0  0  0  0  0  0  0  0  0  0
    8.6868   -0.4148    0.0000 H   0  0  0  0  0  0  0  0  0  0  0  0
    9.3968   -0.2367    0.0000 H   0  0  0  0  0  0  0  0  0  0  0  0
    9.6555   -0.9785    0.0000 H   0  0  0  0  0  0  0  0  0  0  0  0
   11.2470   -4.7076    0.0000 H   0  0  0  0  0  0  0  0  0  0  0  0
   11.0059    1.5265    0.0000 H   0  0  0  0  0  0  0  0  0  0  0  0
    7.5411   -2.5490    0.0000 H   0  0  0  0  0  0  0  0  0  0  0  0
   13.9853   -3.3257    0.0000 H   0  0  0  0  0  0  0  0  0  0  0  0
    5.2418    0.3122    0.0000 H   0  0  0  0  0  0  0  0  0  0  0  0
    6.5582    1.6695    0.0000 H   0  0  0  0  0  0  0  0  0  0  0  0
    9.1909    0.3351    0.0000 H   0  0  0  0  0  0  0  0  0  0  0  0
    8.4514   -0.1360    0.0000 H   0  0  0  0  0  0  0  0  0  0  0  0
    8.9225   -0.8755    0.0000 H   0  0  0  0  0  0  0  0  0  0  0  0
   10.8468    0.6494    0.0000 H   0  0  0  0  0  0  0  0  0  0  0  0
    7.2824   -0.3709    0.0000 H   0  0  0  0  0  0  0  0  0  0  0  0
   11.1141   -1.4006    0.0000 H   0  0  0  0  0  0  0  0  0  0  0  0
    6.6070   -3.6807    0.0000 H   0  0  0  0  0  0  0  0  0  0  0  0
    9.1710   -7.1248    0.0000 H   0  0  0  0  0  0  0  0  0  0  0  0
   10.1738   -7.5090    0.0000 H   0  0  0  0  0  0  0  0  0  0  0  0
    5.9716   -3.8580    0.0000 H   0  0  0  0  0  0  0  0  0  0  0  0
    5.6055   -1.0763    0.0000 H   0  0  0  0  0  0  0  0  0  0  0  0
    3.9993   -1.2877    0.0000 H   0  0  0  0  0  0  0  0  0  0  0  0
   13.1686    0.0561    0.0000 H   0  0  0  0  0  0  0  0  0  0  0  0
   11.1846    2.0402    0.0000 H   0  0  0  0  0  0  0  0  0  0  0  0
    2.6252   -2.3421    0.0000 H   0  0  0  0  0  0  0  0  0  0  0  0
   14.3142    1.2016    0.0000 H   0  0  0  0  0  0  0  0  0  0  0  0
   12.3301    3.1857    0.0000 H   0  0  0  0  0  0  0  0  0  0  0  0
    2.0000   -5.2545    0.0000 H   0  0  0  0  0  0  0  0  0  0  0  0
   15.4327    2.3262    0.0000 H   0  0  0  0  0  0  0  0  0  0  0  0
   17.0001    2.5701    0.0000 H   0  0  0  0  0  0  0  0  0  0  0  0
   16.5611    5.3415    0.0000 H   0  0  0  0  0  0  0  0  0  0  0  0
   18.6001    2.8236    0.0000 H   0  0  0  0  0  0  0  0  0  0  0  0
   18.1612    5.5949    0.0000 H   0  0  0  0  0  0  0  0  0  0  0  0
   19.9252    5.9489    0.0000 H   0  0  0  0  0  0  0  0  0  0  0  0
   19.3058    5.4473    0.0000 H   0  0  0  0  0  0  0  0  0  0  0  0
   20.8912    4.8655    0.0000 H   0  0  0  0  0  0  0  0  0  0  0  0
   21.5107    5.3671    0.0000 H   0  0  0  0  0  0  0  0  0  0  0  0
   21.2712    7.0389    0.0000 H   0  0  0  0  0  0  0  0  0  0  0  0
   20.6518    6.5373    0.0000 H   0  0  0  0  0  0  0  0  0  0  0  0
   22.2373    5.9555    0.0000 H   0  0  0  0  0  0  0  0  0  0  0  0
   22.8567    6.4571    0.0000 H   0  0  0  0  0  0  0  0  0  0  0  0
   23.1853    7.2868    0.0000 H   0  0  0  0  0  0  0  0  0  0  0  0
   22.8287    8.0878    0.0000 H   0  0  0  0  0  0  0  0  0  0  0  0
   22.0277    7.7312    0.0000 H   0  0  0  0  0  0  0  0  0  0  0  0
  1 18  1  0  0  0  0
  1 20  1  0  0  0  0
  1 21  2  0  0  0  0
  1 22  2  0  0  0  0
 36  2  1  1  0  0  0
  2100  1  0  0  0  0
  3 39  2  0  0  0  0
  4 40  2  0  0  0  0
 44  5  1  6  0  0  0
  5121  1  0  0  0  0
 45  6  1  6  0  0  0
  6124  1  0  0  0  0
 47  7  1  6  0  0  0
  7125  1  0  0  0  0
 52  8  1  6  0  0  0
  8126  1  0  0  0  0
  9 49  2  0  0  0  0
 10 50  2  0  0  0  0
 55 11  1  1  0  0  0
 11131  1  0  0  0  0
 12 51  2  0  0  0  0
 58 13  1  6  0  0  0
 13132  1  0  0  0  0
 59 14  1  1  0  0  0
 14133  1  0  0  0  0
 15 60  2  0  0  0  0
 16 61  2  0  0  0  0
 17 64  2  0  0  0  0
 18 67  1  0  0  0  0
 19 70  1  0  0  0  0
 19141  1  0  0  0  0
 20144  1  0  0  0  0
 23 33  1  0  0  0  0
 23 78  1  0  0  0  0
 24 84  1  0  0  0  0
 24 85  1  0  0  0  0
 25 35  1  0  0  0  0
 25 37  1  0  0  0  0
 25 39  1  0  0  0  0
 26 42  1  0  0  0  0
 26 46  1  0  0  0  0
 26 50  1  0  0  0  0
 27 40  1  0  0  0  0
 27 47  1  0  0  0  0
 27107  1  0  0  0  0
 28 41  1  0  0  0  0
 28 51  1  0  0  0  0
 28108  1  0  0  0  0
 29 48  1  0  0  0  0
 29 49  1  0  0  0  0
 29115  1  0  0  0  0
 30 54  1  0  0  0  0
 30 60  1  0  0  0  0
 30122  1  0  0  0  0
 57 31  1  1  0  0  0
 31 64  1  0  0  0  0
 31130  1  0  0  0  0
 32 61  1  0  0  0  0
 32134  1  0  0  0  0
 32135  1  0  0  0  0
 33 76  2  0  0  0  0
 34 36  1  0  0  0  0
 34 37  1  0  0  0  0
 34 38  1  1  0  0  0
 34 90  1  0  0  0  0
 35 36  1  0  0  0  0
 35 40  1  0  0  0  0
 35 91  1  1  0  0  0
 36 92  1  0  0  0  0
 37 93  1  0  0  0  0
 37 94  1  0  0  0  0
 38 95  1  0  0  0  0
 38 96  1  0  0  0  0
 38 97  1  0  0  0  0
 39 41  1  0  0  0  0
 41 44  1  0  0  0  0
 41 98  1  1  0  0  0
 42 43  1  0  0  0  0
 42 49  1  0  0  0  0
 42 99  1  6  0  0  0
 43 45  1  0  0  0  0
 43101  1  0  0  0  0
 43102  1  0  0  0  0
 44 53  1  0  0  0  0
 44103  1  0  0  0  0
 45 46  1  0  0  0  0
 45104  1  0  0  0  0
 46105  1  0  0  0  0
 46106  1  0  0  0  0
 47 52  1  0  0  0  0
 47109  1  0  0  0  0
 48 51  1  0  0  0  0
 48 55  1  0  0  0  0
 48110  1  1  0  0  0
 50 54  1  0  0  0  0
 52 56  1  0  0  0  0
 52111  1  0  0  0  0
 53 61  1  0  0  0  0
 53112  1  0  0  0  0
 53113  1  0  0  0  0
 54 58  1  0  0  0  0
 54114  1  1  0  0  0
 55 59  1  0  0  0  0
 55116  1  0  0  0  0
 56 57  1  0  0  0  0
 56117  1  0  0  0  0
 56118  1  0  0  0  0
 57 60  1  0  0  0  0
 57119  1  0  0  0  0
 58 62  1  0  0  0  0
 58120  1  0  0  0  0
 59 63  1  0  0  0  0
 59123  1  0  0  0  0
 62127  1  0  0  0  0
 62128  1  0  0  0  0
 62129  1  0  0  0  0
 63 65  2  0  0  0  0
 63 66  1  0  0  0  0
 64 69  1  0  0  0  0
 65 67  1  0  0  0  0
 65136  1  0  0  0  0
 66 68  2  0  0  0  0
 66137  1  0  0  0  0
 67 70  2  0  0  0  0
 68 70  1  0  0  0  0
 68138  1  0  0  0  0
 69 71  2  0  0  0  0
 69 72  1  0  0  0  0
 71 73  1  0  0  0  0
 71139  1  0  0  0  0
 72 74  2  0  0  0  0
 72140  1  0  0  0  0
 73 75  2  0  0  0  0
 73142  1  0  0  0  0
 74 75  1  0  0  0  0
 74143  1  0  0  0  0
 75 76  1  0  0  0  0
 76 77  1  0  0  0  0
 77 78  2  0  0  0  0
 77145  1  0  0  0  0
 78 79  1  0  0  0  0
 79 80  2  0  0  0  0
 79 81  1  0  0  0  0
 80 82  1  0  0  0  0
 80146  1  0  0  0  0
 81 83  2  0  0  0  0
 81147  1  0  0  0  0
 82 84  2  0  0  0  0
 82148  1  0  0  0  0
 83 84  1  0  0  0  0
 83149  1  0  0  0  0
 85 86  1  0  0  0  0
 85150  1  0  0  0  0
 85151  1  0  0  0  0
 86 87  1  0  0  0  0
 86152  1  0  0  0  0
 86153  1  0  0  0  0
 87 88  1  0  0  0  0
 87154  1  0  0  0  0
 87155  1  0  0  0  0
 88 89  1  0  0  0  0
 88156  1  0  0  0  0
 88157  1  0  0  0  0
 89158  1  0  0  0  0
 89159  1  0  0  0  0
 89160  1  0  0  0  0
M  END
> <PUBCHEM_COMPOUND_CID>
477468

> <PUBCHEM_COMPOUND_CANONICALIZED>
1

> <PUBCHEM_CACTVS_COMPLEXITY>
2580

> <PUBCHEM_CACTVS_HBOND_ACCEPTOR>
24

> <PUBCHEM_CACTVS_HBOND_DONOR>
16

> <PUBCHEM_CACTVS_ROTATABLE_BOND>
18

> <PUBCHEM_CACTVS_SUBSKEYS>
AAADcfB//gBAAAAAAAAAAAAAAAAAAWLFgAAwYMAAAAAAAAAB1AAAHgAUCAAADTzhngYyhpPQBoCpA6VyUjCCCAAkIgAomKG+7NsPdr6GtbuWeanm9hmZ+cf+//7OYAABAAAAQADAAAIAAACAAAAAAAAAAA==

> <PUBCHEM_IUPAC_INCHI>
InChI=1S/C56H71N9O23S/c1-4-5-6-17-86-32-14-11-28(12-15-32)39-21-33(63-87-39)27-7-9-29(10-8-27)49(75)58-34-20-38(70)52(78)62-54(80)45-46(72)25(2)23-65(45)56(82)43(37(69)22-41(57)71)60-53(79)44(48(74)47(73)30-13-16-36(68)40(18-30)88-89(83,84)85)61-51(77)35-19-31(67)24-64(35)55(81)42(26(3)66)59-50(34)76/h7-16,18,21,25-26,31,34-35,37-38,42-48,52,66-70,72-74,78H,4-6,17,19-20,22-24H2,1-3H3,(H2,57,71)(H,58,75)(H,59,76)(H,60,79)(H,61,77)(H,62,80)(H,83,84,85)/t25-,26+,31+,34-,35-,37+,38+,42-,43-,44-,45-,46-,47-,48-,52+/m0/s1

> <PUBCHEM_IUPAC_INCHIKEY>
PIEUQSKUWLMALL-YABMTYFHSA-N

> <PUBCHEM_XLOGP3_AA>
-1.6

> <PUBCHEM_EXACT_MASS>
1269.438351

> <PUBCHEM_MOLECULAR_FORMULA>
C56H71N9O23S

> <PUBCHEM_MOLECULAR_WEIGHT>
1270.27444

> <PUBCHEM_OPENEYE_CAN_SMILES>
CCCCCOC1=CC=C(C=C1)C2=CC(=NO2)C3=CC=C(C=C3)C(=O)NC4CC(C(NC(=O)C5C(C(CN5C(=O)C(NC(=O)C(NC(=O)C6CC(CN6C(=O)C(NC4=O)C(C)O)O)C(C(C7=CC(=C(C=C7)O)OS(=O)(=O)O)O)O)C(CC(=O)N)O)C)O)O)O

> <PUBCHEM_OPENEYE_ISO_SMILES>
CCCCCOC1=CC=C(C=C1)C2=CC(=NO2)C3=CC=C(C=C3)C(=O)N[C@H]4C[C@H]([C@H](NC(=O)[C@@H]5[C@H]([C@H](CN5C(=O)[C@@H](NC(=O)[C@@H](NC(=O)[C@@H]6C[C@H](CN6C(=O)[C@@H](NC4=O)[C@@H](C)O)O)[C@@H]([C@H](C7=CC(=C(C=C7)O)OS(=O)(=O)O)O)O)[C@@H](CC(=O)N)O)C)O)O)O

> <PUBCHEM_CACTVS_TPSA>
519

> <PUBCHEM_MONOISOTOPIC_WEIGHT>
1269.438351

> <PUBCHEM_TOTAL_CHARGE>
0

> <PUBCHEM_HEAVY_ATOM_COUNT>
89

> <PUBCHEM_ATOM_DEF_STEREO_COUNT>
15

> <PUBCHEM_ATOM_UDEF_STEREO_COUNT>
0

> <PUBCHEM_BOND_DEF_STEREO_COUNT>
0

> <PUBCHEM_BOND_UDEF_STEREO_COUNT>
0

> <PUBCHEM_ISOTOPIC_ATOM_COUNT>
0

> <PUBCHEM_COMPONENT_COUNT>
1

> <PUBCHEM_CACTVS_TAUTO_COUNT>
1000

> <PUBCHEM_COORDINATE_TYPE>
1
5
255

> <PUBCHEM_BONDANNOTATIONS>
55  11  5
58  13  6
59  14  5
36  2  5
23  33  8
23  78  8
57  31  5
33  76  8
34  38  5
35  91  5
41  98  5
42  99  6
48  110  5
44  5  6
54  114  5
45  6  6
63  65  8
63  66  8
65  67  8
66  68  8
67  70  8
68  70  8
69  71  8
69  72  8
47  7  6
71  73  8
72  74  8
73  75  8
74  75  8
76  77  8
77  78  8
79  80  8
79  81  8
52  8  6
80  82  8
81  83  8
82  84  8
83  84  8

$$$$
