5040
  -OEChem-12171208122D

144147  0     1  0  0  0  0  0999 V2000
    2.9639    0.3539    0.0000 O   0  0  0  0  0  0  0  0  0  0  0  0
    2.4613   -1.5819    0.0000 O   0  0  0  0  0  0  0  0  0  0  0  0
    8.2913   -1.7044    0.0000 O   0  0  0  0  0  0  0  0  0  0  0  0
   13.3356   -3.3130    0.0000 O   0  0  0  0  0  0  0  0  0  0  0  0
   12.1641   -2.6891    0.0000 O   0  0  0  0  0  0  0  0  0  0  0  0
    7.9776   -3.0198    0.0000 O   0  0  0  0  0  0  0  0  0  0  0  0
    6.9182    0.8146    0.0000 O   0  0  0  0  0  0  0  0  0  0  0  0
   11.8170   -4.7166    0.0000 O   0  0  0  0  0  0  0  0  0  0  0  0
   15.9135   -2.0539    0.0000 O   0  0  0  0  0  0  0  0  0  0  0  0
   10.7955   -4.6467    0.0000 O   0  0  0  0  0  0  0  0  0  0  0  0
    9.1316    4.1201    0.0000 O   0  0  0  0  0  0  0  0  0  0  0  0
   10.0564    4.5594    0.0000 O   0  0  0  0  0  0  0  0  0  0  0  0
   11.0536    4.7914    0.0000 O   0  0  0  0  0  0  0  0  0  0  0  0
   10.1933   -3.4359    0.0000 N   0  0  0  0  0  0  0  0  0  0  0  0
    5.3529   -0.7830    0.0000 C   0  0  3  0  0  0  0  0  0  0  0  0
    4.6404   -0.0814    0.0000 C   0  0  0  0  0  0  0  0  0  0  0  0
    5.1016   -1.7509    0.0000 C   0  0  0  0  0  0  0  0  0  0  0  0
    6.3168   -0.5166    0.0000 C   0  0  0  0  0  0  0  0  0  0  0  0
    3.6765   -0.3477    0.0000 C   0  0  3  0  0  0  0  0  0  0  0  0
    4.1378   -2.0172    0.0000 C   0  0  0  0  0  0  0  0  0  0  0  0
    3.4252   -1.3156    0.0000 C   0  0  3  0  0  0  0  0  0  0  0  0
    7.0294   -1.2182    0.0000 C   0  0  3  0  0  0  0  0  0  0  0  0
    7.9933   -0.9519    0.0000 C   0  0  3  0  0  0  0  0  0  0  0  0
    6.7781   -2.1861    0.0000 C   0  0  0  0  0  0  0  0  0  0  0  0
    7.8626   -0.1532    0.0000 C   0  0  0  0  0  0  0  0  0  0  0  0
   12.9865   -4.4950    0.0000 C   0  0  3  0  0  0  0  0  0  0  0  0
    9.3273   -2.9359    0.0000 C   0  0  3  0  0  0  0  0  0  0  0  0
   12.5786   -3.5992    0.0000 C   0  0  3  0  0  0  0  0  0  0  0  0
   14.0142   -2.8719    0.0000 C   0  0  3  0  0  0  0  0  0  0  0  0
   13.9686   -4.5624    0.0000 C   0  0  0  0  0  0  0  0  0  0  0  0
   14.4952   -3.7307    0.0000 C   0  0  0  0  0  0  0  0  0  0  0  0
    9.3273   -1.9359    0.0000 C   0  0  0  0  0  0  0  0  0  0  0  0
    8.7428   -2.3761    0.0000 C   0  0  0  0  0  0  0  0  0  0  0  0
   11.0593   -2.9359    0.0000 C   0  0  0  0  0  0  0  0  0  0  0  0
    7.9054    0.6551    0.0000 C   0  0  0  0  0  0  0  0  0  0  0  0
   10.1933   -1.4359    0.0000 C   0  0  0  0  0  0  0  0  0  0  0  0
   11.0593   -1.9359    0.0000 C   0  0  0  0  0  0  0  0  0  0  0  0
    2.0000    0.0876    0.0000 C   0  0  0  0  0  0  0  0  0  0  0  0
   14.5831   -2.2962    0.0000 C   0  0  0  0  0  0  0  0  0  0  0  0
   11.7779   -3.7174    0.0000 C   0  0  0  0  0  0  0  0  0  0  0  0
   10.9704   -3.6621    0.0000 C   0  0  0  0  0  0  0  0  0  0  0  0
   12.4170   -5.3170    0.0000 C   0  0  0  0  0  0  0  0  0  0  0  0
    8.1194    1.4356    0.0000 C   0  0  3  0  0  0  0  0  0  0  0  0
   15.0162   -1.6125    0.0000 C   0  0  3  0  0  0  0  0  0  0  0  0
    7.1890    1.8020    0.0000 C   0  0  0  0  0  0  0  0  0  0  0  0
    8.4950    2.1525    0.0000 C   0  0  0  0  0  0  0  0  0  0  0  0
   15.2935   -0.8521    0.0000 C   0  0  0  0  0  0  0  0  0  0  0  0
    9.0149    2.7728    0.0000 C   0  0  0  0  0  0  0  0  0  0  0  0
   16.2643   -1.0920    0.0000 C   0  0  0  0  0  0  0  0  0  0  0  0
    9.6551    3.2680    0.0000 C   0  0  3  0  0  0  0  0  0  0  0  0
   15.4022   -0.0501    0.0000 C   0  0  0  0  0  0  0  0  0  0  0  0
   10.3861    3.6153    0.0000 C   0  0  3  0  0  0  0  0  0  0  0  0
   15.9799   -3.0517    0.0000 C   0  0  0  0  0  0  0  0  0  0  0  0
    8.3217    3.4936    0.0000 C   0  0  0  0  0  0  0  0  0  0  0  0
   11.9837    3.8098    0.0000 C   0  0  3  0  0  0  0  0  0  0  0  0
   11.1744    3.7987    0.0000 C   0  0  0  0  0  0  0  0  0  0  0  0
   15.3375    0.7566    0.0000 C   0  0  0  0  0  0  0  0  0  0  0  0
   12.7767    3.6480    0.0000 C   0  0  0  0  0  0  0  0  0  0  0  0
   13.5170    3.3208    0.0000 C   0  0  3  0  0  0  0  0  0  0  0  0
   12.0773    4.8054    0.0000 C   0  0  0  0  0  0  0  0  0  0  0  0
   15.1021    1.5310    0.0000 C   0  0  0  0  0  0  0  0  0  0  0  0
   14.1705    2.8433    0.0000 C   0  0  0  0  0  0  0  0  0  0  0  0
   14.0170    4.1868    0.0000 C   0  0  0  0  0  0  0  0  0  0  0  0
   14.7071    2.2374    0.0000 C   0  0  0  0  0  0  0  0  0  0  0  0
   10.7091    5.3170    0.0000 C   0  0  0  0  0  0  0  0  0  0  0  0
    5.5665    0.0398    0.0000 H   0  0  0  0  0  0  0  0  0  0  0  0
    5.1454    0.2782    0.0000 H   0  0  0  0  0  0  0  0  0  0  0  0
    4.3740    0.4785    0.0000 H   0  0  0  0  0  0  0  0  0  0  0  0
    5.1605   -2.3681    0.0000 H   0  0  0  0  0  0  0  0  0  0  0  0
    5.7197   -1.8001    0.0000 H   0  0  0  0  0  0  0  0  0  0  0  0
    6.8219   -0.1571    0.0000 H   0  0  0  0  0  0  0  0  0  0  0  0
    6.0504    0.0432    0.0000 H   0  0  0  0  0  0  0  0  0  0  0  0
    2.8572   -0.5741    0.0000 H   0  0  0  0  0  0  0  0  0  0  0  0
    3.6327   -2.3768    0.0000 H   0  0  0  0  0  0  0  0  0  0  0  0
    4.4041   -2.5770    0.0000 H   0  0  0  0  0  0  0  0  0  0  0  0
    3.2116   -2.1383    0.0000 H   0  0  0  0  0  0  0  0  0  0  0  0
    6.2101   -1.4446    0.0000 H   0  0  0  0  0  0  0  0  0  0  0  0
    7.6143   -1.7128    0.0000 H   0  0  0  0  0  0  0  0  0  0  0  0
    6.1780   -2.0303    0.0000 H   0  0  0  0  0  0  0  0  0  0  0  0
    6.6223   -2.7862    0.0000 H   0  0  0  0  0  0  0  0  0  0  0  0
    7.3782   -2.3419    0.0000 H   0  0  0  0  0  0  0  0  0  0  0  0
    7.3200    0.1467    0.0000 H   0  0  0  0  0  0  0  0  0  0  0  0
    8.4817   -0.1193    0.0000 H   0  0  0  0  0  0  0  0  0  0  0  0
   13.3548   -5.2611    0.0000 H   0  0  0  0  0  0  0  0  0  0  0  0
    2.3055   -2.1820    0.0000 H   0  0  0  0  0  0  0  0  0  0  0  0
    8.8171   -3.6158    0.0000 H   0  0  0  0  0  0  0  0  0  0  0  0
   13.4772   -2.2130    0.0000 H   0  0  0  0  0  0  0  0  0  0  0  0
   13.8249   -5.1656    0.0000 H   0  0  0  0  0  0  0  0  0  0  0  0
   14.5399   -4.8034    0.0000 H   0  0  0  0  0  0  0  0  0  0  0  0
   14.9573   -4.1441    0.0000 H   0  0  0  0  0  0  0  0  0  0  0  0
   14.9789   -3.3429    0.0000 H   0  0  0  0  0  0  0  0  0  0  0  0
    9.1152   -1.3533    0.0000 H   0  0  0  0  0  0  0  0  0  0  0  0
    8.7167   -2.0436    0.0000 H   0  0  0  0  0  0  0  0  0  0  0  0
   11.2714   -3.5186    0.0000 H   0  0  0  0  0  0  0  0  0  0  0  0
   11.6699   -2.8283    0.0000 H   0  0  0  0  0  0  0  0  0  0  0  0
   10.5918   -0.9610    0.0000 H   0  0  0  0  0  0  0  0  0  0  0  0
    9.7948   -0.9610    0.0000 H   0  0  0  0  0  0  0  0  0  0  0  0
   11.6699   -2.0436    0.0000 H   0  0  0  0  0  0  0  0  0  0  0  0
   11.2714   -1.3533    0.0000 H   0  0  0  0  0  0  0  0  0  0  0  0
   14.7895   -2.8809    0.0000 H   0  0  0  0  0  0  0  0  0  0  0  0
   14.0979   -1.9102    0.0000 H   0  0  0  0  0  0  0  0  0  0  0  0
    1.8349    0.6852    0.0000 H   0  0  0  0  0  0  0  0  0  0  0  0
    1.4024   -0.0776    0.0000 H   0  0  0  0  0  0  0  0  0  0  0  0
    2.1651   -0.5100    0.0000 H   0  0  0  0  0  0  0  0  0  0  0  0
   11.9074   -4.9638    0.0000 H   0  0  0  0  0  0  0  0  0  0  0  0
   12.0638   -5.8266    0.0000 H   0  0  0  0  0  0  0  0  0  0  0  0
   12.9266   -5.6701    0.0000 H   0  0  0  0  0  0  0  0  0  0  0  0
    7.8228    2.2321    0.0000 H   0  0  0  0  0  0  0  0  0  0  0  0
   15.2466   -2.4306    0.0000 H   0  0  0  0  0  0  0  0  0  0  0  0
   12.5242   -2.1845    0.0000 H   0  0  0  0  0  0  0  0  0  0  0  0
    7.4161    2.3789    0.0000 H   0  0  0  0  0  0  0  0  0  0  0  0
    6.6121    2.0292    0.0000 H   0  0  0  0  0  0  0  0  0  0  0  0
    6.9618    1.2251    0.0000 H   0  0  0  0  0  0  0  0  0  0  0  0
    7.9799    2.4975    0.0000 H   0  0  0  0  0  0  0  0  0  0  0  0
   16.1155   -1.6939    0.0000 H   0  0  0  0  0  0  0  0  0  0  0  0
   16.8662   -1.2407    0.0000 H   0  0  0  0  0  0  0  0  0  0  0  0
   16.4130   -0.4901    0.0000 H   0  0  0  0  0  0  0  0  0  0  0  0
    8.8189    3.4208    0.0000 H   0  0  0  0  0  0  0  0  0  0  0  0
   16.0220   -0.0671    0.0000 H   0  0  0  0  0  0  0  0  0  0  0  0
   10.7959    4.3600    0.0000 H   0  0  0  0  0  0  0  0  0  0  0  0
   15.3613   -3.0928    0.0000 H   0  0  0  0  0  0  0  0  0  0  0  0
   16.0211   -3.6703    0.0000 H   0  0  0  0  0  0  0  0  0  0  0  0
   16.5985   -3.0105    0.0000 H   0  0  0  0  0  0  0  0  0  0  0  0
    8.7686    3.9234    0.0000 H   0  0  0  0  0  0  0  0  0  0  0  0
    7.8920    3.9405    0.0000 H   0  0  0  0  0  0  0  0  0  0  0  0
    7.8748    3.0639    0.0000 H   0  0  0  0  0  0  0  0  0  0  0  0
   11.4072    4.4344    0.0000 H   0  0  0  0  0  0  0  0  0  0  0  0
   15.9466    0.8723    0.0000 H   0  0  0  0  0  0  0  0  0  0  0  0
   13.2498    4.0487    0.0000 H   0  0  0  0  0  0  0  0  0  0  0  0
   12.5883    3.0573    0.0000 H   0  0  0  0  0  0  0  0  0  0  0  0
    8.5118    4.1031    0.0000 H   0  0  0  0  0  0  0  0  0  0  0  0
   14.3486    3.4964    0.0000 H   0  0  0  0  0  0  0  0  0  0  0  0
   12.6946    4.7473    0.0000 H   0  0  0  0  0  0  0  0  0  0  0  0
   12.1354    5.4226    0.0000 H   0  0  0  0  0  0  0  0  0  0  0  0
   11.4601    4.8634    0.0000 H   0  0  0  0  0  0  0  0  0  0  0  0
   15.6726    1.7739    0.0000 H   0  0  0  0  0  0  0  0  0  0  0  0
   14.5878    3.3018    0.0000 H   0  0  0  0  0  0  0  0  0  0  0  0
   14.5539    3.8768    0.0000 H   0  0  0  0  0  0  0  0  0  0  0  0
   14.3270    4.7238    0.0000 H   0  0  0  0  0  0  0  0  0  0  0  0
   13.4800    4.4968    0.0000 H   0  0  0  0  0  0  0  0  0  0  0  0
   15.2126    2.5963    0.0000 H   0  0  0  0  0  0  0  0  0  0  0  0
   11.1788    4.9123    0.0000 H   0  0  0  0  0  0  0  0  0  0  0  0
   11.1138    5.7867    0.0000 H   0  0  0  0  0  0  0  0  0  0  0  0
   10.2394    5.7217    0.0000 H   0  0  0  0  0  0  0  0  0  0  0  0
  1 19  1  0  0  0  0
  1 38  1  0  0  0  0
  2 21  1  0  0  0  0
  2 85  1  0  0  0  0
  3 23  1  0  0  0  0
  3 33  1  0  0  0  0
  4 28  1  0  0  0  0
  4 29  1  0  0  0  0
  5 28  1  0  0  0  0
  5110  1  0  0  0  0
  6 33  2  0  0  0  0
  7 35  2  0  0  0  0
  8 40  2  0  0  0  0
  9 44  1  0  0  0  0
  9 53  1  0  0  0  0
 10 41  2  0  0  0  0
 11 50  1  0  0  0  0
 11131  1  0  0  0  0
 12 52  1  0  0  0  0
 12 65  1  0  0  0  0
 13 56  2  0  0  0  0
 14 27  1  0  0  0  0
 14 34  1  0  0  0  0
 14 41  1  0  0  0  0
 15 16  1  0  0  0  0
 15 17  1  0  0  0  0
 15 18  1  0  0  0  0
 15 66  1  0  0  0  0
 16 19  1  0  0  0  0
 16 67  1  0  0  0  0
 16 68  1  0  0  0  0
 17 20  1  0  0  0  0
 17 69  1  0  0  0  0
 17 70  1  0  0  0  0
 18 22  1  0  0  0  0
 18 71  1  0  0  0  0
 18 72  1  0  0  0  0
 19 21  1  0  0  0  0
 19 73  1  0  0  0  0
 20 21  1  0  0  0  0
 20 74  1  0  0  0  0
 20 75  1  0  0  0  0
 21 76  1  0  0  0  0
 22 23  1  0  0  0  0
 22 24  1  0  0  0  0
 22 77  1  0  0  0  0
 23 25  1  0  0  0  0
 23 78  1  0  0  0  0
 24 79  1  0  0  0  0
 24 80  1  0  0  0  0
 24 81  1  0  0  0  0
 25 35  1  0  0  0  0
 25 82  1  0  0  0  0
 25 83  1  0  0  0  0
 26 28  1  0  0  0  0
 26 30  1  0  0  0  0
 26 42  1  0  0  0  0
 26 84  1  0  0  0  0
 27 32  1  0  0  0  0
 27 33  1  0  0  0  0
 27 86  1  0  0  0  0
 28 40  1  0  0  0  0
 29 31  1  0  0  0  0
 29 39  1  0  0  0  0
 29 87  1  0  0  0  0
 30 31  1  0  0  0  0
 30 88  1  0  0  0  0
 30 89  1  0  0  0  0
 31 90  1  0  0  0  0
 31 91  1  0  0  0  0
 32 36  1  0  0  0  0
 32 92  1  0  0  0  0
 32 93  1  0  0  0  0
 34 37  1  0  0  0  0
 34 94  1  0  0  0  0
 34 95  1  0  0  0  0
 35 43  1  0  0  0  0
 36 37  1  0  0  0  0
 36 96  1  0  0  0  0
 36 97  1  0  0  0  0
 37 98  1  0  0  0  0
 37 99  1  0  0  0  0
 38102  1  0  0  0  0
 38103  1  0  0  0  0
 38104  1  0  0  0  0
 39 44  1  0  0  0  0
 39100  1  0  0  0  0
 39101  1  0  0  0  0
 40 41  1  0  0  0  0
 42105  1  0  0  0  0
 42106  1  0  0  0  0
 42107  1  0  0  0  0
 43 45  1  0  0  0  0
 43 46  1  0  0  0  0
 43108  1  0  0  0  0
 44 47  1  0  0  0  0
 44109  1  0  0  0  0
 45111  1  0  0  0  0
 45112  1  0  0  0  0
 45113  1  0  0  0  0
 46 48  2  3  0  0  0
 46114  1  0  0  0  0
 47 49  1  0  0  0  0
 47 51  2  3  0  0  0
 48 50  1  0  0  0  0
 48 54  1  0  0  0  0
 49115  1  0  0  0  0
 49116  1  0  0  0  0
 49117  1  0  0  0  0
 50 52  1  0  0  0  0
 50118  1  0  0  0  0
 51 57  1  0  0  0  0
 51119  1  0  0  0  0
 52 56  1  0  0  0  0
 52120  1  0  0  0  0
 53121  1  0  0  0  0
 53122  1  0  0  0  0
 53123  1  0  0  0  0
 54124  1  0  0  0  0
 54125  1  0  0  0  0
 54126  1  0  0  0  0
 55 56  1  0  0  0  0
 55 58  1  0  0  0  0
 55 60  1  0  0  0  0
 55127  1  0  0  0  0
 57 61  2  3  0  0  0
 57128  1  0  0  0  0
 58 59  1  0  0  0  0
 58129  1  0  0  0  0
 58130  1  0  0  0  0
 59 62  1  0  0  0  0
 59 63  1  0  0  0  0
 59132  1  0  0  0  0
 60133  1  0  0  0  0
 60134  1  0  0  0  0
 60135  1  0  0  0  0
 61 64  1  0  0  0  0
 61136  1  0  0  0  0
 62 64  2  3  0  0  0
 62137  1  0  0  0  0
 63138  1  0  0  0  0
 63139  1  0  0  0  0
 63140  1  0  0  0  0
 64141  1  0  0  0  0
 65142  1  0  0  0  0
 65143  1  0  0  0  0
 65144  1  0  0  0  0
M  END
> <PUBCHEM_COMPOUND_CID>
5040

> <PUBCHEM_COMPOUND_CANONICALIZED>
1

> <PUBCHEM_CACTVS_COMPLEXITY>
1760

> <PUBCHEM_CACTVS_HBOND_ACCEPTOR>
13

> <PUBCHEM_CACTVS_HBOND_DONOR>
3

> <PUBCHEM_CACTVS_ROTATABLE_BOND>
6

> <PUBCHEM_CACTVS_SUBSKEYS>
AAADcfB+PAAAAAAAAAAAAAAAAAAAAAAAAAA8SIAAAAAAAAAAAAAAHgAACAAADTzhgAYCCAMABgCIAqHSGAIAAAAgAAAICAHIAAgbFBYAoSQHUAAH5gCfsAOY6PSOAAAAAAAAAABAAAIAAACAAAAAAAAAAA==

> <PUBCHEM_IUPAC_INCHI>
InChI=1S/C51H79NO13/c1-30-16-12-11-13-17-31(2)42(61-8)28-38-21-19-36(7)51(60,65-38)48(57)49(58)52-23-15-14-18-39(52)50(59)64-43(33(4)26-37-20-22-40(53)44(27-37)62-9)29-41(54)32(3)25-35(6)46(56)47(63-10)45(55)34(5)24-30/h11-13,16-17,25,30,32-34,36-40,42-44,46-47,53,56,60H,14-15,18-24,26-29H2,1-10H3

> <PUBCHEM_IUPAC_INCHIKEY>
QFJCIRLUMZQUOT-UHFFFAOYSA-N

> <PUBCHEM_XLOGP3_AA>
6

> <PUBCHEM_EXACT_MASS>
913.555142

> <PUBCHEM_MOLECULAR_FORMULA>
C51H79NO13

> <PUBCHEM_MOLECULAR_WEIGHT>
914.17186

> <PUBCHEM_OPENEYE_CAN_SMILES>
CC1CCC2CC(C(=CC=CC=CC(CC(C(=O)C(C(C(=CC(C(=O)CC(OC(=O)C3CCCCN3C(=O)C(=O)C1(O2)O)C(C)CC4CCC(C(C4)OC)O)C)C)O)OC)C)C)C)OC

> <PUBCHEM_OPENEYE_ISO_SMILES>
CC1CCC2CC(C(=CC=CC=CC(CC(C(=O)C(C(C(=CC(C(=O)CC(OC(=O)C3CCCCN3C(=O)C(=O)C1(O2)O)C(C)CC4CCC(C(C4)OC)O)C)C)O)OC)C)C)C)OC

> <PUBCHEM_CACTVS_TPSA>
195

> <PUBCHEM_MONOISOTOPIC_WEIGHT>
913.555142

> <PUBCHEM_TOTAL_CHARGE>
0

> <PUBCHEM_HEAVY_ATOM_COUNT>
65

> <PUBCHEM_ATOM_DEF_STEREO_COUNT>
0

> <PUBCHEM_ATOM_UDEF_STEREO_COUNT>
15

> <PUBCHEM_BOND_DEF_STEREO_COUNT>
0

> <PUBCHEM_BOND_UDEF_STEREO_COUNT>
4

> <PUBCHEM_ISOTOPIC_ATOM_COUNT>
0

> <PUBCHEM_COMPONENT_COUNT>
1

> <PUBCHEM_CACTVS_TAUTO_COUNT>
15

> <PUBCHEM_COORDINATE_TYPE>
1
5
255

> <PUBCHEM_BONDANNOTATIONS>
15  66  3
19  73  3
21  76  3
22  77  3
23  78  3
26  84  3
27  86  3
29  87  3
43  108  3
44  109  3
46  48  1
47  51  1
28  5  3
50  118  3
52  120  3
55  127  3
57  61  1
59  132  3
62  64  1

$$$$
