504578
  -OEChem-12171208242D

 88 91  0     1  0  0  0  0  0999 V2000
    6.5236    0.8811    0.0000 O   0  0  0  0  0  0  0  0  0  0  0  0
    8.5126    0.6721    0.0000 O   0  0  0  0  0  0  0  0  0  0  0  0
   10.0071   -0.2985    0.0000 O   0  0  0  0  0  0  0  0  0  0  0  0
   11.9558    1.4040    0.0000 O   0  0  0  0  0  0  0  0  0  0  0  0
    9.3261   -1.1550    0.0000 O   0  0  0  0  0  0  0  0  0  0  0  0
    2.5455    1.2993    0.0000 O   0  0  0  0  0  0  0  0  0  0  0  0
    3.7210    2.9173    0.0000 O   0  0  0  0  0  0  0  0  0  0  0  0
   12.8219   -0.0960    0.0000 O   0  0  0  0  0  0  0  0  0  0  0  0
    9.9683    2.2888    0.0000 O   0  0  0  0  0  0  0  0  0  0  0  0
   15.4199    1.4040    0.0000 O   0  0  0  0  0  0  0  0  0  0  0  0
   11.5205   -1.7378    0.0000 O   0  0  0  0  0  0  0  0  0  0  0  0
   15.4199   -0.5960    0.0000 O   0  0  0  0  0  0  0  0  0  0  0  0
    5.7101    2.7082    0.0000 N   0  0  0  0  0  0  0  0  0  0  0  0
    8.1505   -2.7730    0.0000 N   0  0  0  0  0  0  0  0  0  0  0  0
    2.3644   -0.4233    0.0000 N   0  0  0  0  0  0  0  0  0  0  0  0
   13.6879    2.4040    0.0000 N   0  0  0  0  0  0  0  0  0  0  0  0
   12.8219   -2.0960    0.0000 N   0  0  0  0  0  0  0  0  0  0  0  0
    5.5290    0.9857    0.0000 C   0  0  2  0  0  0  0  0  0  0  0  0
    6.9303   -0.0324    0.0000 C   0  0  1  0  0  0  0  0  0  0  0  0
    7.9248   -0.1369    0.0000 C   0  0  1  0  0  0  0  0  0  0  0  0
    3.9467    0.2812    0.0000 C   0  0  1  0  0  0  0  0  0  0  0  0
    5.1223    1.8992    0.0000 C   0  0  1  0  0  0  0  0  0  0  0  0
    4.9413    0.1767    0.0000 C   0  0  0  0  0  0  0  0  0  0  0  0
    8.3316   -1.0505    0.0000 C   0  0  2  0  0  0  0  0  0  0  0  0
    3.5400    1.1947    0.0000 C   0  0  2  0  0  0  0  0  0  0  0  0
    4.1278    2.0037    0.0000 C   0  0  2  0  0  0  0  0  0  0  0  0
    6.3425   -0.8414    0.0000 C   0  0  0  0  0  0  0  0  0  0  0  0
    7.7438   -1.8595    0.0000 C   0  0  1  0  0  0  0  0  0  0  0  0
    6.7492   -1.7550    0.0000 C   0  0  0  0  0  0  0  0  0  0  0  0
    9.5071    0.5676    0.0000 C   0  0  2  0  0  0  0  0  0  0  0  0
   11.0898    0.9040    0.0000 C   0  0  1  0  0  0  0  0  0  0  0  0
   10.1763    1.3107    0.0000 C   0  0  1  0  0  0  0  0  0  0  0  0
    3.3590   -0.5278    0.0000 C   0  0  0  0  0  0  0  0  0  0  0  0
   10.9853   -0.0906    0.0000 C   0  0  1  0  0  0  0  0  0  0  0  0
   12.8219    0.9040    0.0000 C   0  0  1  0  0  0  0  0  0  0  0  0
   13.6879    1.4040    0.0000 C   0  0  1  0  0  0  0  0  0  0  0  0
   14.5539    0.9040    0.0000 C   0  0  2  0  0  0  0  0  0  0  0  0
   11.7284   -0.7597    0.0000 C   0  0  0  0  0  0  0  0  0  0  0  0
   14.5539   -0.0960    0.0000 C   0  0  1  0  0  0  0  0  0  0  0  0
   13.6879   -0.5960    0.0000 C   0  0  2  0  0  0  0  0  0  0  0  0
   13.6879   -1.5960    0.0000 C   0  0  0  0  0  0  0  0  0  0  0  0
    5.8935    1.4873    0.0000 H   0  0  0  0  0  0  0  0  0  0  0  0
    7.2947    0.4692    0.0000 H   0  0  0  0  0  0  0  0  0  0  0  0
    7.6726    0.4295    0.0000 H   0  0  0  0  0  0  0  0  0  0  0  0
    3.3301    0.3460    0.0000 H   0  0  0  0  0  0  0  0  0  0  0  0
    5.7389    1.8344    0.0000 H   0  0  0  0  0  0  0  0  0  0  0  0
    4.7704   -0.4193    0.0000 H   0  0  0  0  0  0  0  0  0  0  0  0
    5.4985   -0.0951    0.0000 H   0  0  0  0  0  0  0  0  0  0  0  0
    8.6960   -0.5489    0.0000 H   0  0  0  0  0  0  0  0  0  0  0  0
    3.2878    1.7611    0.0000 H   0  0  0  0  0  0  0  0  0  0  0  0
    4.4922    2.5053    0.0000 H   0  0  0  0  0  0  0  0  0  0  0  0
    5.9118   -0.3954    0.0000 H   0  0  0  0  0  0  0  0  0  0  0  0
    5.8285   -1.1881    0.0000 H   0  0  0  0  0  0  0  0  0  0  0  0
    7.3794   -2.3611    0.0000 H   0  0  0  0  0  0  0  0  0  0  0  0
    6.1477   -1.9050    0.0000 H   0  0  0  0  0  0  0  0  0  0  0  0
    6.7925   -2.3735    0.0000 H   0  0  0  0  0  0  0  0  0  0  0  0
    9.1694    0.0476    0.0000 H   0  0  0  0  0  0  0  0  0  0  0  0
   11.0574    1.5231    0.0000 H   0  0  0  0  0  0  0  0  0  0  0  0
    9.5774    1.4712    0.0000 H   0  0  0  0  0  0  0  0  0  0  0  0
    3.1880   -1.1238    0.0000 H   0  0  0  0  0  0  0  0  0  0  0  0
    3.9162   -0.7996    0.0000 H   0  0  0  0  0  0  0  0  0  0  0  0
   10.8248   -0.6894    0.0000 H   0  0  0  0  0  0  0  0  0  0  0  0
    6.3267    2.6434    0.0000 H   0  0  0  0  0  0  0  0  0  0  0  0
    5.4579    3.2746    0.0000 H   0  0  0  0  0  0  0  0  0  0  0  0
   12.2849    0.5940    0.0000 H   0  0  0  0  0  0  0  0  0  0  0  0
    7.7861   -3.2746    0.0000 H   0  0  0  0  0  0  0  0  0  0  0  0
    8.7671   -2.8378    0.0000 H   0  0  0  0  0  0  0  0  0  0  0  0
   14.2248    1.7140    0.0000 H   0  0  0  0  0  0  0  0  0  0  0  0
    9.5783   -1.7214    0.0000 H   0  0  0  0  0  0  0  0  0  0  0  0
    2.1810    0.7977    0.0000 H   0  0  0  0  0  0  0  0  0  0  0  0
    3.1044    2.9821    0.0000 H   0  0  0  0  0  0  0  0  0  0  0  0
   15.0908    0.5940    0.0000 H   0  0  0  0  0  0  0  0  0  0  0  0
   12.3033   -0.9919    0.0000 H   0  0  0  0  0  0  0  0  0  0  0  0
   12.0570   -0.2339    0.0000 H   0  0  0  0  0  0  0  0  0  0  0  0
   15.0908    0.2140    0.0000 H   0  0  0  0  0  0  0  0  0  0  0  0
   13.1509   -0.9060    0.0000 H   0  0  0  0  0  0  0  0  0  0  0  0
    2.0000   -0.9249    0.0000 H   0  0  0  0  0  0  0  0  0  0  0  0
    2.1122    0.1431    0.0000 H   0  0  0  0  0  0  0  0  0  0  0  0
    9.3787    2.4804    0.0000 H   0  0  0  0  0  0  0  0  0  0  0  0
   13.8999   -2.1787    0.0000 H   0  0  0  0  0  0  0  0  0  0  0  0
   14.2985   -1.4884    0.0000 H   0  0  0  0  0  0  0  0  0  0  0  0
   14.2248    2.7140    0.0000 H   0  0  0  0  0  0  0  0  0  0  0  0
   13.1509    2.7140    0.0000 H   0  0  0  0  0  0  0  0  0  0  0  0
   15.9569    1.0940    0.0000 H   0  0  0  0  0  0  0  0  0  0  0  0
   10.9309   -1.9294    0.0000 H   0  0  0  0  0  0  0  0  0  0  0  0
   15.4199   -1.2160    0.0000 H   0  0  0  0  0  0  0  0  0  0  0  0
   12.8219   -2.7160    0.0000 H   0  0  0  0  0  0  0  0  0  0  0  0
   12.2849   -1.7860    0.0000 H   0  0  0  0  0  0  0  0  0  0  0  0
 18  1  1  1  0  0  0
 19  1  1  1  0  0  0
 20  2  1  6  0  0  0
 30  2  1  1  0  0  0
  3 30  1  0  0  0  0
  3 34  1  0  0  0  0
 31  4  1  6  0  0  0
 35  4  1  6  0  0  0
 24  5  1  1  0  0  0
  5 69  1  0  0  0  0
 25  6  1  1  0  0  0
  6 70  1  0  0  0  0
 26  7  1  6  0  0  0
  7 71  1  0  0  0  0
  8 35  1  0  0  0  0
  8 40  1  0  0  0  0
 32  9  1  6  0  0  0
  9 79  1  0  0  0  0
 37 10  1  1  0  0  0
 10 84  1  0  0  0  0
 11 38  1  0  0  0  0
 11 85  1  0  0  0  0
 39 12  1  6  0  0  0
 12 86  1  0  0  0  0
 22 13  1  1  0  0  0
 13 63  1  0  0  0  0
 13 64  1  0  0  0  0
 28 14  1  6  0  0  0
 14 66  1  0  0  0  0
 14 67  1  0  0  0  0
 15 33  1  0  0  0  0
 15 77  1  0  0  0  0
 15 78  1  0  0  0  0
 36 16  1  6  0  0  0
 16 82  1  0  0  0  0
 16 83  1  0  0  0  0
 17 41  1  0  0  0  0
 17 87  1  0  0  0  0
 17 88  1  0  0  0  0
 18 22  1  0  0  0  0
 18 23  1  0  0  0  0
 18 42  1  0  0  0  0
 19 20  1  0  0  0  0
 19 27  1  0  0  0  0
 19 43  1  0  0  0  0
 20 24  1  0  0  0  0
 20 44  1  0  0  0  0
 21 23  1  0  0  0  0
 21 25  1  0  0  0  0
 21 33  1  6  0  0  0
 21 45  1  0  0  0  0
 22 26  1  0  0  0  0
 22 46  1  0  0  0  0
 23 47  1  0  0  0  0
 23 48  1  0  0  0  0
 24 28  1  0  0  0  0
 24 49  1  0  0  0  0
 25 26  1  0  0  0  0
 25 50  1  0  0  0  0
 26 51  1  0  0  0  0
 27 29  1  0  0  0  0
 27 52  1  0  0  0  0
 27 53  1  0  0  0  0
 28 29  1  0  0  0  0
 28 54  1  0  0  0  0
 29 55  1  0  0  0  0
 29 56  1  0  0  0  0
 30 32  1  0  0  0  0
 30 57  1  0  0  0  0
 31 32  1  0  0  0  0
 31 34  1  0  0  0  0
 31 58  1  0  0  0  0
 32 59  1  0  0  0  0
 33 60  1  0  0  0  0
 33 61  1  0  0  0  0
 34 38  1  1  0  0  0
 34 62  1  0  0  0  0
 35 36  1  0  0  0  0
 35 65  1  0  0  0  0
 36 37  1  0  0  0  0
 36 68  1  0  0  0  0
 37 39  1  0  0  0  0
 37 72  1  0  0  0  0
 38 73  1  0  0  0  0
 38 74  1  0  0  0  0
 39 40  1  0  0  0  0
 39 75  1  0  0  0  0
 40 41  1  6  0  0  0
 40 76  1  0  0  0  0
 41 80  1  0  0  0  0
 41 81  1  0  0  0  0
M  END
> <PUBCHEM_COMPOUND_CID>
504578

> <PUBCHEM_COMPOUND_CANONICALIZED>
1

> <PUBCHEM_CACTVS_COMPLEXITY>
838

> <PUBCHEM_CACTVS_HBOND_ACCEPTOR>
17

> <PUBCHEM_CACTVS_HBOND_DONOR>
12

> <PUBCHEM_CACTVS_ROTATABLE_BOND>
9

> <PUBCHEM_CACTVS_SUBSKEYS>
AAADcfB7vAAAAAAAAAAAAAAAAAAAASAAAAA0YIAAAAAAAAAAAAAAHgAQCAAADTzxgAcACABABgAAAAAAAAAAAAAAAAAAAIAAAAATEAIAgAAjQAAHEAAHAAHw8D0OAAAAAAAAAAASgAIUABCgAAAAAAAAAA==

> <PUBCHEM_IUPAC_OPENEYE_NAME>
(2S,3S,4R,5R,6R)-5-amino-6-[(2R,3S,4R,5S)-5-[(1R,2S,3R,6R)-3-amino-6-[(1S,2R,3R,4R,5R)-2-amino-5-(aminomethyl)-3,4-dihydroxy-cyclohexoxy]-2-hydroxy-cyclohexoxy]-4-hydroxy-2-(hydroxymethyl)tetrahydrofuran-3-yl]oxy-2-(aminomethyl)tetrahydropyran-3,4-diol

> <PUBCHEM_IUPAC_CAS_NAME>
(2S,3S,4R,5R,6R)-5-amino-6-[[(2R,3S,4R,5S)-5-[(1R,2S,3R,6R)-3-amino-6-[(1S,2R,3R,4R,5R)-2-amino-5-(aminomethyl)-3,4-dihydroxycyclohexyl]oxy-2-hydroxycyclohexyl]oxy-4-hydroxy-2-(hydroxymethyl)-3-oxolanyl]oxy]-2-(aminomethyl)oxane-3,4-diol

> <PUBCHEM_IUPAC_NAME>
(2S,3S,4R,5R,6R)-5-amino-6-[(2R,3S,4R,5S)-5-[(1R,2S,3R,6R)-3-amino-6-[(1S,2R,3R,4R,5R)-2-amino-5-(aminomethyl)-3,4-dihydroxycyclohexyl]oxy-2-hydroxycyclohexyl]oxy-4-hydroxy-2-(hydroxymethyl)oxolan-3-yl]oxy-2-(aminomethyl)oxane-3,4-diol

> <PUBCHEM_IUPAC_SYSTEMATIC_NAME>
(2S,3S,4R,5R,6R)-2-(aminomethyl)-6-[(2R,3S,4R,5S)-5-[(1R,2S,3R,6R)-6-[(1S,2R,3R,4R,5R)-5-(aminomethyl)-2-azanyl-3,4-bis(oxidanyl)cyclohexyl]oxy-3-azanyl-2-oxidanyl-cyclohexyl]oxy-2-(hydroxymethyl)-4-oxidanyl-oxolan-3-yl]oxy-5-azanyl-oxane-3,4-diol

> <PUBCHEM_IUPAC_TRADITIONAL_NAME>
(2S,3S,4R,5R,6R)-5-amino-6-[(2R,3S,4R,5S)-5-[(1R,2S,3R,6R)-3-amino-6-[(1S,2R,3R,4R,5R)-2-amino-5-(aminomethyl)-3,4-dihydroxy-cyclohexoxy]-2-hydroxy-cyclohexoxy]-4-hydroxy-2-methylol-tetrahydrofuran-3-yl]oxy-2-(aminomethyl)tetrahydropyran-3,4-diol

> <PUBCHEM_IUPAC_INCHI>
InChI=1S/C24H47N5O12/c25-4-7-3-10(13(28)18(34)15(7)31)37-9-2-1-8(27)16(32)21(9)41-24-20(36)22(12(6-30)39-24)40-23-14(29)19(35)17(33)11(5-26)38-23/h7-24,30-36H,1-6,25-29H2/t7-,8-,9-,10+,11+,12-,13+,14-,15-,16+,17-,18-,19-,20-,21+,22-,23-,24+/m1/s1

> <PUBCHEM_IUPAC_INCHIKEY>
PZRUMSPVTQZXBY-LLLNQCKJSA-N

> <PUBCHEM_XLOGP3_AA>
-7.2

> <PUBCHEM_EXACT_MASS>
597.322122

> <PUBCHEM_MOLECULAR_FORMULA>
C24H47N5O12

> <PUBCHEM_MOLECULAR_WEIGHT>
597.65628

> <PUBCHEM_OPENEYE_CAN_SMILES>
C1CC(C(C(C1N)O)OC2C(C(C(O2)CO)OC3C(C(C(C(O3)CN)O)O)N)O)OC4CC(C(C(C4N)O)O)CN

> <PUBCHEM_OPENEYE_ISO_SMILES>
C1C[C@H]([C@@H]([C@H]([C@@H]1N)O)O[C@H]2[C@@H]([C@@H]([C@H](O2)CO)O[C@@H]3[C@@H]([C@H]([C@@H]([C@@H](O3)CN)O)O)N)O)O[C@H]4C[C@@H]([C@H]([C@@H]([C@H]4N)O)O)CN

> <PUBCHEM_CACTVS_TPSA>
318

> <PUBCHEM_MONOISOTOPIC_WEIGHT>
597.322122

> <PUBCHEM_TOTAL_CHARGE>
0

> <PUBCHEM_HEAVY_ATOM_COUNT>
41

> <PUBCHEM_ATOM_DEF_STEREO_COUNT>
18

> <PUBCHEM_ATOM_UDEF_STEREO_COUNT>
0

> <PUBCHEM_BOND_DEF_STEREO_COUNT>
0

> <PUBCHEM_BOND_UDEF_STEREO_COUNT>
0

> <PUBCHEM_ISOTOPIC_ATOM_COUNT>
0

> <PUBCHEM_COMPONENT_COUNT>
1

> <PUBCHEM_CACTVS_TAUTO_COUNT>
1

> <PUBCHEM_COORDINATE_TYPE>
1
5
255

> <PUBCHEM_BONDANNOTATIONS>
18  1  5
19  1  5
37  10  5
39  12  6
22  13  5
28  14  6
36  16  6
20  2  6
30  2  5
21  33  6
34  38  5
31  4  6
35  4  6
40  41  6
24  5  5
25  6  5
26  7  6
32  9  6

$$$$
