5311297
  -OEChem-12171208252D

 61 64  0     1  0  0  0  0  0999 V2000
   16.0564   -0.6792    0.0000 Cl  0  0  0  0  0  0  0  0  0  0  0  0
    6.4641    0.8450    0.0000 S   0  0  0  0  0  0  0  0  0  0  0  0
    3.0000    1.8450    0.0000 O   0  0  0  0  0  0  0  0  0  0  0  0
   12.5263   -0.6550    0.0000 N   0  0  0  0  0  0  0  0  0  0  0  0
    3.0000    0.8450    0.0000 C   0  0  0  0  0  0  0  0  0  0  0  0
    4.7320   -0.1550    0.0000 C   0  0  0  0  0  0  0  0  0  0  0  0
    3.0000   -0.1550    0.0000 C   0  0  0  0  0  0  0  0  0  0  0  0
    3.8660   -0.6550    0.0000 C   0  0  0  0  0  0  0  0  0  0  0  0
    5.5981   -0.6550    0.0000 C   0  0  0  0  0  0  0  0  0  0  0  0
    6.4641   -0.1550    0.0000 C   0  0  2  0  0  0  0  0  0  0  0  0
    2.0000    0.8450    0.0000 C   0  0  0  0  0  0  0  0  0  0  0  0
    4.0000    0.8450    0.0000 C   0  0  0  0  0  0  0  0  0  0  0  0
    7.3301   -0.6550    0.0000 C   0  0  0  0  0  0  0  0  0  0  0  0
    3.8660   -1.6550    0.0000 C   0  0  0  0  0  0  0  0  0  0  0  0
    2.1340   -0.6550    0.0000 C   0  0  0  0  0  0  0  0  0  0  0  0
    3.0000   -2.1550    0.0000 C   0  0  0  0  0  0  0  0  0  0  0  0
    2.1340   -1.6550    0.0000 C   0  0  0  0  0  0  0  0  0  0  0  0
    8.1962   -0.1550    0.0000 C   0  0  0  0  0  0  0  0  0  0  0  0
    7.3301   -1.6550    0.0000 C   0  0  0  0  0  0  0  0  0  0  0  0
    9.0622   -0.6550    0.0000 C   0  0  0  0  0  0  0  0  0  0  0  0
    8.1962   -2.1550    0.0000 C   0  0  0  0  0  0  0  0  0  0  0  0
    9.0622   -1.6550    0.0000 C   0  0  0  0  0  0  0  0  0  0  0  0
    9.9282   -0.1550    0.0000 C   0  0  0  0  0  0  0  0  0  0  0  0
   10.7942   -0.6550    0.0000 C   0  0  0  0  0  0  0  0  0  0  0  0
   11.6603   -0.1550    0.0000 C   0  0  0  0  0  0  0  0  0  0  0  0
   13.3923    0.8450    0.0000 C   0  0  0  0  0  0  0  0  0  0  0  0
   13.3923   -0.1550    0.0000 C   0  0  0  0  0  0  0  0  0  0  0  0
   11.6603    0.8450    0.0000 C   0  0  0  0  0  0  0  0  0  0  0  0
   12.5263    1.3450    0.0000 C   0  0  0  0  0  0  0  0  0  0  0  0
   14.2862    1.3797    0.0000 C   0  0  0  0  0  0  0  0  0  0  0  0
   14.2862   -0.6897    0.0000 C   0  0  0  0  0  0  0  0  0  0  0  0
   15.1923    0.8658    0.0000 C   0  0  0  0  0  0  0  0  0  0  0  0
   15.1923   -0.1758    0.0000 C   0  0  0  0  0  0  0  0  0  0  0  0
    5.1306    0.3199    0.0000 H   0  0  0  0  0  0  0  0  0  0  0  0
    4.3335    0.3199    0.0000 H   0  0  0  0  0  0  0  0  0  0  0  0
    5.1996   -1.1300    0.0000 H   0  0  0  0  0  0  0  0  0  0  0  0
    5.9966   -1.1300    0.0000 H   0  0  0  0  0  0  0  0  0  0  0  0
    7.0010    0.1550    0.0000 H   0  0  0  0  0  0  0  0  0  0  0  0
    2.0000    1.4650    0.0000 H   0  0  0  0  0  0  0  0  0  0  0  0
    1.3800    0.8450    0.0000 H   0  0  0  0  0  0  0  0  0  0  0  0
    2.0000    0.2250    0.0000 H   0  0  0  0  0  0  0  0  0  0  0  0
    4.0000    0.2250    0.0000 H   0  0  0  0  0  0  0  0  0  0  0  0
    4.6200    0.8450    0.0000 H   0  0  0  0  0  0  0  0  0  0  0  0
    4.0000    1.4650    0.0000 H   0  0  0  0  0  0  0  0  0  0  0  0
    4.4030   -1.9650    0.0000 H   0  0  0  0  0  0  0  0  0  0  0  0
    1.5970   -0.3450    0.0000 H   0  0  0  0  0  0  0  0  0  0  0  0
    3.0000   -2.7750    0.0000 H   0  0  0  0  0  0  0  0  0  0  0  0
    1.5970   -1.9650    0.0000 H   0  0  0  0  0  0  0  0  0  0  0  0
    8.1962    0.4650    0.0000 H   0  0  0  0  0  0  0  0  0  0  0  0
    2.4631    2.1550    0.0000 H   0  0  0  0  0  0  0  0  0  0  0  0
    6.7932   -1.9650    0.0000 H   0  0  0  0  0  0  0  0  0  0  0  0
    5.9272    1.1550    0.0000 H   0  0  0  0  0  0  0  0  0  0  0  0
    8.1962   -2.7750    0.0000 H   0  0  0  0  0  0  0  0  0  0  0  0
    9.5991   -1.9650    0.0000 H   0  0  0  0  0  0  0  0  0  0  0  0
    9.9282    0.4650    0.0000 H   0  0  0  0  0  0  0  0  0  0  0  0
   10.7942   -1.2750    0.0000 H   0  0  0  0  0  0  0  0  0  0  0  0
   11.1233    1.1550    0.0000 H   0  0  0  0  0  0  0  0  0  0  0  0
   12.5263    1.9650    0.0000 H   0  0  0  0  0  0  0  0  0  0  0  0
   14.2791    1.9996    0.0000 H   0  0  0  0  0  0  0  0  0  0  0  0
   14.2791   -1.3096    0.0000 H   0  0  0  0  0  0  0  0  0  0  0  0
   15.7281    1.1779    0.0000 H   0  0  0  0  0  0  0  0  0  0  0  0
  1 33  1  0  0  0  0
 10  2  1  1  0  0  0
  2 52  1  0  0  0  0
  3  5  1  0  0  0  0
  3 50  1  0  0  0  0
  4 25  2  0  0  0  0
  4 27  1  0  0  0  0
  5  7  1  0  0  0  0
  5 11  1  0  0  0  0
  5 12  1  0  0  0  0
  6  8  1  0  0  0  0
  6  9  1  0  0  0  0
  6 34  1  0  0  0  0
  6 35  1  0  0  0  0
  7  8  1  0  0  0  0
  7 15  2  0  0  0  0
  8 14  2  0  0  0  0
  9 10  1  0  0  0  0
  9 36  1  0  0  0  0
  9 37  1  0  0  0  0
 10 13  1  0  0  0  0
 10 38  1  0  0  0  0
 11 39  1  0  0  0  0
 11 40  1  0  0  0  0
 11 41  1  0  0  0  0
 12 42  1  0  0  0  0
 12 43  1  0  0  0  0
 12 44  1  0  0  0  0
 13 18  1  0  0  0  0
 13 19  2  0  0  0  0
 14 16  1  0  0  0  0
 14 45  1  0  0  0  0
 15 17  1  0  0  0  0
 15 46  1  0  0  0  0
 16 17  2  0  0  0  0
 16 47  1  0  0  0  0
 17 48  1  0  0  0  0
 18 20  2  0  0  0  0
 18 49  1  0  0  0  0
 19 21  1  0  0  0  0
 19 51  1  0  0  0  0
 20 22  1  0  0  0  0
 20 23  1  0  0  0  0
 21 22  2  0  0  0  0
 21 53  1  0  0  0  0
 22 54  1  0  0  0  0
 23 24  2  0  0  0  0
 23 55  1  0  0  0  0
 24 25  1  0  0  0  0
 24 56  1  0  0  0  0
 25 28  1  0  0  0  0
 26 27  2  0  0  0  0
 26 29  1  0  0  0  0
 26 30  1  0  0  0  0
 27 31  1  0  0  0  0
 28 29  2  0  0  0  0
 28 57  1  0  0  0  0
 29 58  1  0  0  0  0
 30 32  2  0  0  0  0
 30 59  1  0  0  0  0
 31 33  2  0  0  0  0
 31 60  1  0  0  0  0
 32 33  1  0  0  0  0
 32 61  1  0  0  0  0
M  END
> <PUBCHEM_COMPOUND_CID>
5311297

> <PUBCHEM_COMPOUND_CANONICALIZED>
1

> <PUBCHEM_CACTVS_COMPLEXITY>
639

> <PUBCHEM_CACTVS_HBOND_ACCEPTOR>
3

> <PUBCHEM_CACTVS_HBOND_DONOR>
2

> <PUBCHEM_CACTVS_ROTATABLE_BOND>
7

> <PUBCHEM_CACTVS_SUBSKEYS>
AAADceB6IABEAAAAAAAAAAAAAAAAAAAAAAA8YMEAAAAAAACx9AAAHgYACAAADE6F3iCywPIIEgSgAyRiRACCgCAhByAImCAwbpgIJuLBk5GEcAhkwAHI2AeQwOAOhAACAAISAAAIAAQABCQAAAAAAAAAAA==

> <PUBCHEM_IUPAC_OPENEYE_NAME>
2-[2-[(3R)-3-[3-[(E)-2-(7-chloro-2-quinolyl)vinyl]phenyl]-3-sulfanyl-propyl]phenyl]propan-2-ol

> <PUBCHEM_IUPAC_CAS_NAME>
2-[2-[(3R)-3-[3-[(E)-2-(7-chloro-2-quinolinyl)ethenyl]phenyl]-3-mercaptopropyl]phenyl]-2-propanol

> <PUBCHEM_IUPAC_NAME>
2-[2-[(3R)-3-[3-[(E)-2-(7-chloroquinolin-2-yl)ethenyl]phenyl]-3-sulfanylpropyl]phenyl]propan-2-ol

> <PUBCHEM_IUPAC_SYSTEMATIC_NAME>
2-[2-[(3R)-3-[3-[(E)-2-(7-chloranylquinolin-2-yl)ethenyl]phenyl]-3-sulfanyl-propyl]phenyl]propan-2-ol

> <PUBCHEM_IUPAC_TRADITIONAL_NAME>
2-[2-[(3R)-3-[3-[(E)-2-(7-chloro-2-quinolyl)vinyl]phenyl]-3-mercapto-propyl]phenyl]propan-2-ol

> <PUBCHEM_IUPAC_INCHI>
InChI=1S/C29H28ClNOS/c1-29(2,32)26-9-4-3-7-21(26)13-17-28(33)23-8-5-6-20(18-23)10-15-25-16-12-22-11-14-24(30)19-27(22)31-25/h3-12,14-16,18-19,28,32-33H,13,17H2,1-2H3/b15-10+/t28-/m1/s1

> <PUBCHEM_IUPAC_INCHIKEY>
WZQJFYIKVBTOGT-MGUPHCMFSA-N

> <PUBCHEM_XLOGP3_AA>
7.3

> <PUBCHEM_EXACT_MASS>
473.158013

> <PUBCHEM_MOLECULAR_FORMULA>
C29H28ClNOS

> <PUBCHEM_MOLECULAR_WEIGHT>
474.05672

> <PUBCHEM_OPENEYE_CAN_SMILES>
CC(C)(C1=CC=CC=C1CCC(C2=CC=CC(=C2)C=CC3=NC4=C(C=CC(=C4)Cl)C=C3)S)O

> <PUBCHEM_OPENEYE_ISO_SMILES>
CC(C)(C1=CC=CC=C1CC[C@H](C2=CC=CC(=C2)/C=C/C3=NC4=C(C=CC(=C4)Cl)C=C3)S)O

> <PUBCHEM_CACTVS_TPSA>
34.1

> <PUBCHEM_MONOISOTOPIC_WEIGHT>
473.158013

> <PUBCHEM_TOTAL_CHARGE>
0

> <PUBCHEM_HEAVY_ATOM_COUNT>
33

> <PUBCHEM_ATOM_DEF_STEREO_COUNT>
1

> <PUBCHEM_ATOM_UDEF_STEREO_COUNT>
0

> <PUBCHEM_BOND_DEF_STEREO_COUNT>
1

> <PUBCHEM_BOND_UDEF_STEREO_COUNT>
0

> <PUBCHEM_ISOTOPIC_ATOM_COUNT>
0

> <PUBCHEM_COMPONENT_COUNT>
1

> <PUBCHEM_CACTVS_TAUTO_COUNT>
1

> <PUBCHEM_COORDINATE_TYPE>
1
5
255

> <PUBCHEM_BONDANNOTATIONS>
13  18  8
13  19  8
14  16  8
15  17  8
16  17  8
18  20  8
19  21  8
10  2  5
20  22  8
21  22  8
25  28  8
26  27  8
26  29  8
26  30  8
27  31  8
28  29  8
30  32  8
31  33  8
32  33  8
4  25  8
4  27  8
7  15  8
7  8  8
8  14  8

$$$$
