5311181
  -OEChem-12171208252D

 58 59  0     1  0  0  0  0  0999 V2000
    6.2300   -1.0518    0.0000 O   0  0  0  0  0  0  0  0  0  0  0  0
    6.8907    2.6104    0.0000 O   0  0  0  0  0  0  0  0  0  0  0  0
   14.7987   -3.6499    0.0000 O   0  0  0  0  0  0  0  0  0  0  0  0
   14.7987   -1.9179    0.0000 O   0  0  0  0  0  0  0  0  0  0  0  0
    8.7688   -0.5518    0.0000 C   0  0  1  0  0  0  0  0  0  0  0  0
    8.7688   -1.5518    0.0000 C   0  0  2  0  0  0  0  0  0  0  0  0
    7.8178   -0.2428    0.0000 C   0  0  2  0  0  0  0  0  0  0  0  0
    7.8178   -1.8608    0.0000 C   0  0  0  0  0  0  0  0  0  0  0  0
    7.2300   -1.0518    0.0000 C   0  0  1  0  0  0  0  0  0  0  0  0
    9.7151   -0.2471    0.0000 C   0  0  0  0  0  0  0  0  0  0  0  0
    9.7151   -1.8566    0.0000 C   0  0  0  0  0  0  0  0  0  0  0  0
   10.2987   -1.0518    0.0000 C   0  0  0  0  0  0  0  0  0  0  0  0
    7.5088    0.7082    0.0000 C   0  0  0  0  0  0  0  0  0  0  0  0
   11.2987   -1.0518    0.0000 C   0  0  0  0  0  0  0  0  0  0  0  0
    6.5306    0.9162    0.0000 C   0  0  0  0  0  0  0  0  0  0  0  0
   11.7987   -1.9179    0.0000 C   0  0  0  0  0  0  0  0  0  0  0  0
    6.2216    1.8672    0.0000 C   0  0  2  0  0  0  0  0  0  0  0  0
   12.7987   -1.9179    0.0000 C   0  0  0  0  0  0  0  0  0  0  0  0
    5.2435    2.0751    0.0000 C   0  0  3  0  0  0  0  0  0  0  0  0
   13.2987   -2.7839    0.0000 C   0  0  0  0  0  0  0  0  0  0  0  0
    4.9344    3.0262    0.0000 C   0  0  0  0  0  0  0  0  0  0  0  0
    4.5743    1.3320    0.0000 C   0  0  0  0  0  0  0  0  0  0  0  0
   14.2987   -2.7839    0.0000 C   0  0  0  0  0  0  0  0  0  0  0  0
    3.9563    3.2341    0.0000 C   0  0  0  0  0  0  0  0  0  0  0  0
    2.9782    3.4420    0.0000 C   0  0  0  0  0  0  0  0  0  0  0  0
    2.0000    3.6499    0.0000 C   0  0  0  0  0  0  0  0  0  0  0  0
    8.7700    0.2982    0.0000 H   0  0  0  0  0  0  0  0  0  0  0  0
    8.7700   -2.4018    0.0000 H   0  0  0  0  0  0  0  0  0  0  0  0
    8.2562    0.1956    0.0000 H   0  0  0  0  0  0  0  0  0  0  0  0
    7.2808   -2.1708    0.0000 H   0  0  0  0  0  0  0  0  0  0  0  0
    8.0700   -2.4272    0.0000 H   0  0  0  0  0  0  0  0  0  0  0  0
    6.9485   -0.4994    0.0000 H   0  0  0  0  0  0  0  0  0  0  0  0
   10.2524    0.0621    0.0000 H   0  0  0  0  0  0  0  0  0  0  0  0
    9.4640    0.3198    0.0000 H   0  0  0  0  0  0  0  0  0  0  0  0
    9.4640   -2.4235    0.0000 H   0  0  0  0  0  0  0  0  0  0  0  0
   10.2524   -2.1658    0.0000 H   0  0  0  0  0  0  0  0  0  0  0  0
    7.9236    1.1690    0.0000 H   0  0  0  0  0  0  0  0  0  0  0  0
   11.6087   -0.5149    0.0000 H   0  0  0  0  0  0  0  0  0  0  0  0
    5.9200   -1.5888    0.0000 H   0  0  0  0  0  0  0  0  0  0  0  0
    6.1158    0.4554    0.0000 H   0  0  0  0  0  0  0  0  0  0  0  0
   11.2161   -2.1299    0.0000 H   0  0  0  0  0  0  0  0  0  0  0  0
   11.9063   -2.5284    0.0000 H   0  0  0  0  0  0  0  0  0  0  0  0
    6.0300    2.4569    0.0000 H   0  0  0  0  0  0  0  0  0  0  0  0
   13.3813   -1.7058    0.0000 H   0  0  0  0  0  0  0  0  0  0  0  0
   12.6910   -1.3073    0.0000 H   0  0  0  0  0  0  0  0  0  0  0  0
    4.4120    2.2518    0.0000 H   0  0  0  0  0  0  0  0  0  0  0  0
   12.7161   -2.9959    0.0000 H   0  0  0  0  0  0  0  0  0  0  0  0
   13.4063   -3.3945    0.0000 H   0  0  0  0  0  0  0  0  0  0  0  0
    5.5484    3.1125    0.0000 H   0  0  0  0  0  0  0  0  0  0  0  0
    4.9561    3.6458    0.0000 H   0  0  0  0  0  0  0  0  0  0  0  0
    6.6992    3.2000    0.0000 H   0  0  0  0  0  0  0  0  0  0  0  0
    4.1136    1.7468    0.0000 H   0  0  0  0  0  0  0  0  0  0  0  0
    4.1595    0.8712    0.0000 H   0  0  0  0  0  0  0  0  0  0  0  0
    5.0351    0.9171    0.0000 H   0  0  0  0  0  0  0  0  0  0  0  0
   15.4187   -3.6499    0.0000 H   0  0  0  0  0  0  0  0  0  0  0  0
    2.1289    4.2564    0.0000 H   0  0  0  0  0  0  0  0  0  0  0  0
    1.3936    3.7788    0.0000 H   0  0  0  0  0  0  0  0  0  0  0  0
    1.8711    3.0435    0.0000 H   0  0  0  0  0  0  0  0  0  0  0  0
  9  1  1  1  0  0  0
  1 39  1  0  0  0  0
 17  2  1  6  0  0  0
  2 51  1  0  0  0  0
  3 23  1  0  0  0  0
  3 55  1  0  0  0  0
  4 23  2  0  0  0  0
  5  6  1  0  0  0  0
  5  7  1  0  0  0  0
  5 10  1  0  0  0  0
  5 27  1  6  0  0  0
  6  8  1  0  0  0  0
  6 11  1  0  0  0  0
  6 28  1  6  0  0  0
  7  9  1  0  0  0  0
  7 13  1  6  0  0  0
  7 29  1  0  0  0  0
  8  9  1  0  0  0  0
  8 30  1  0  0  0  0
  8 31  1  0  0  0  0
  9 32  1  0  0  0  0
 10 12  1  0  0  0  0
 10 33  1  0  0  0  0
 10 34  1  0  0  0  0
 11 12  1  0  0  0  0
 11 35  1  0  0  0  0
 11 36  1  0  0  0  0
 12 14  2  0  0  0  0
 13 15  2  0  0  0  0
 13 37  1  0  0  0  0
 14 16  1  0  0  0  0
 14 38  1  0  0  0  0
 15 17  1  0  0  0  0
 15 40  1  0  0  0  0
 16 18  1  0  0  0  0
 16 41  1  0  0  0  0
 16 42  1  0  0  0  0
 17 19  1  0  0  0  0
 17 43  1  0  0  0  0
 18 20  1  0  0  0  0
 18 44  1  0  0  0  0
 18 45  1  0  0  0  0
 19 21  1  0  0  0  0
 19 22  1  0  0  0  0
 19 46  1  0  0  0  0
 20 23  1  0  0  0  0
 20 47  1  0  0  0  0
 20 48  1  0  0  0  0
 21 24  1  0  0  0  0
 21 49  1  0  0  0  0
 21 50  1  0  0  0  0
 22 52  1  0  0  0  0
 22 53  1  0  0  0  0
 22 54  1  0  0  0  0
 24 25  3  0  0  0  0
 25 26  1  0  0  0  0
 26 56  1  0  0  0  0
 26 57  1  0  0  0  0
 26 58  1  0  0  0  0
M  END
> <PUBCHEM_COMPOUND_CID>
5311181

> <PUBCHEM_COMPOUND_CANONICALIZED>
1

> <PUBCHEM_CACTVS_COMPLEXITY>
606

> <PUBCHEM_CACTVS_HBOND_ACCEPTOR>
4

> <PUBCHEM_CACTVS_HBOND_DONOR>
3

> <PUBCHEM_CACTVS_ROTATABLE_BOND>
8

> <PUBCHEM_CACTVS_SUBSKEYS>
AAADcfB4OAAAAAAAAAAAAAAAAAAAAYMAAAAAAAAAAAAYAAAAAAAAGgAACAAADRSggAICCAAAAgDIEiDSCAgAAAAgAAAICAEAAAgAFBIAAQAAUAAEwAAIEAOIwOAOgAAAAAAAAAAAAAAAAAAAAYAADAAAAA==

> <PUBCHEM_IUPAC_OPENEYE_NAME>
(5E)-5-[(3aS,4R,5R,6aS)-5-hydroxy-4-[(E,3S)-3-hydroxy-4-methyl-oct-1-en-6-ynyl]-3,3a,4,5,6,6a-hexahydro-1H-pentalen-2-ylidene]pentanoic acid

> <PUBCHEM_IUPAC_CAS_NAME>
(5E)-5-[(3aS,4R,5R,6aS)-5-hydroxy-4-[(E,3S)-3-hydroxy-4-methyloct-1-en-6-ynyl]-3,3a,4,5,6,6a-hexahydro-1H-pentalen-2-ylidene]pentanoic acid

> <PUBCHEM_IUPAC_NAME>
(5E)-5-[(3aS,4R,5R,6aS)-5-hydroxy-4-[(E,3S)-3-hydroxy-4-methyloct-1-en-6-ynyl]-3,3a,4,5,6,6a-hexahydro-1H-pentalen-2-ylidene]pentanoic acid

> <PUBCHEM_IUPAC_SYSTEMATIC_NAME>
(5E)-5-[(3aS,4R,5R,6aS)-4-[(E,3S)-4-methyl-3-oxidanyl-oct-1-en-6-ynyl]-5-oxidanyl-3,3a,4,5,6,6a-hexahydro-1H-pentalen-2-ylidene]pentanoic acid

> <PUBCHEM_IUPAC_TRADITIONAL_NAME>
(5E)-5-[(3aS,4R,5R,6aS)-5-hydroxy-4-[(E,3S)-3-hydroxy-4-methyl-oct-1-en-6-ynyl]-3,3a,4,5,6,6a-hexahydro-1H-pentalen-2-ylidene]valeric acid

> <PUBCHEM_IUPAC_INCHI>
InChI=1S/C22H32O4/c1-3-4-7-15(2)20(23)11-10-18-19-13-16(8-5-6-9-22(25)26)12-17(19)14-21(18)24/h8,10-11,15,17-21,23-24H,5-7,9,12-14H2,1-2H3,(H,25,26)/b11-10+,16-8+/t15?,17-,18+,19-,20+,21+/m0/s1

> <PUBCHEM_IUPAC_INCHIKEY>
HIFJCPQKFCZDDL-ACWOEMLNSA-N

> <PUBCHEM_XLOGP3_AA>
2.8

> <PUBCHEM_EXACT_MASS>
360.23006

> <PUBCHEM_MOLECULAR_FORMULA>
C22H32O4

> <PUBCHEM_MOLECULAR_WEIGHT>
360.48708

> <PUBCHEM_OPENEYE_CAN_SMILES>
CC#CCC(C)C(C=CC1C(CC2C1CC(=CCCCC(=O)O)C2)O)O

> <PUBCHEM_OPENEYE_ISO_SMILES>
CC#CCC(C)[C@@H](/C=C/[C@H]1[C@@H](C[C@H]2[C@@H]1C/C(=C/CCCC(=O)O)/C2)O)O

> <PUBCHEM_CACTVS_TPSA>
77.8

> <PUBCHEM_MONOISOTOPIC_WEIGHT>
360.23006

> <PUBCHEM_TOTAL_CHARGE>
0

> <PUBCHEM_HEAVY_ATOM_COUNT>
26

> <PUBCHEM_ATOM_DEF_STEREO_COUNT>
5

> <PUBCHEM_ATOM_UDEF_STEREO_COUNT>
1

> <PUBCHEM_BOND_DEF_STEREO_COUNT>
2

> <PUBCHEM_BOND_UDEF_STEREO_COUNT>
0

> <PUBCHEM_ISOTOPIC_ATOM_COUNT>
0

> <PUBCHEM_COMPONENT_COUNT>
1

> <PUBCHEM_CACTVS_TAUTO_COUNT>
1

> <PUBCHEM_COORDINATE_TYPE>
1
5
255

> <PUBCHEM_BONDANNOTATIONS>
9  1  5
19  46  3
17  2  6
5  27  6
6  28  6
7  13  6

$$$$
