5311027
  -OEChem-12171208252D

 67 68  0     1  0  0  0  0  0999 V2000
   10.6969    2.8613    0.0000 O   0  0  0  0  0  0  0  0  0  0  0  0
   10.3290   -0.6395    0.0000 O   0  0  0  0  0  0  0  0  0  0  0  0
    6.6094   -0.7547    0.0000 O   0  0  0  0  0  0  0  0  0  0  0  0
    4.8532    5.7546    0.0000 O   0  0  0  0  0  0  0  0  0  0  0  0
    3.6942    4.4675    0.0000 N   0  0  0  0  0  0  0  0  0  0  0  0
    9.3120    1.7399    0.0000 C   0  0  2  0  0  0  0  0  0  0  0  0
    9.2075    0.7453    0.0000 C   0  0  2  0  0  0  0  0  0  0  0  0
   10.2902    1.9478    0.0000 C   0  0  2  0  0  0  0  0  0  0  0  0
   10.1211    0.3386    0.0000 C   0  0  1  0  0  0  0  0  0  0  0  0
   10.7902    1.0818    0.0000 C   0  0  0  0  0  0  0  0  0  0  0  0
    8.5689    2.4090    0.0000 C   0  0  0  0  0  0  0  0  0  0  0  0
    8.3415    0.2453    0.0000 C   0  0  0  0  0  0  0  0  0  0  0  0
    8.7768    3.3872    0.0000 C   0  0  0  0  0  0  0  0  0  0  0  0
    8.3415   -0.7547    0.0000 C   0  0  0  0  0  0  0  0  0  0  0  0
    7.4755   -1.2546    0.0000 C   0  0  2  0  0  0  0  0  0  0  0  0
    8.0337    4.0563    0.0000 C   0  0  0  0  0  0  0  0  0  0  0  0
    7.4755   -2.2546    0.0000 C   0  0  0  0  0  0  0  0  0  0  0  0
    7.0826    3.7473    0.0000 C   0  0  0  0  0  0  0  0  0  0  0  0
    6.6094   -2.7546    0.0000 C   0  0  0  0  0  0  0  0  0  0  0  0
    6.3395    4.4164    0.0000 C   0  0  0  0  0  0  0  0  0  0  0  0
    6.6094   -3.7546    0.0000 C   0  0  0  0  0  0  0  0  0  0  0  0
    5.3884    4.1074    0.0000 C   0  0  0  0  0  0  0  0  0  0  0  0
    5.7434   -4.2546    0.0000 C   0  0  0  0  0  0  0  0  0  0  0  0
    7.4755   -4.2546    0.0000 C   0  0  0  0  0  0  0  0  0  0  0  0
    4.6453    4.7765    0.0000 C   0  0  0  0  0  0  0  0  0  0  0  0
    5.7434   -5.2546    0.0000 C   0  0  0  0  0  0  0  0  0  0  0  0
    7.4755   -5.2546    0.0000 C   0  0  0  0  0  0  0  0  0  0  0  0
    6.6094   -5.7546    0.0000 C   0  0  0  0  0  0  0  0  0  0  0  0
    2.9511    5.1366    0.0000 C   0  0  0  0  0  0  0  0  0  0  0  0
    2.0000    4.8276    0.0000 C   0  0  0  0  0  0  0  0  0  0  0  0
    9.4725    2.3387    0.0000 H   0  0  0  0  0  0  0  0  0  0  0  0
    8.6875    1.0830    0.0000 H   0  0  0  0  0  0  0  0  0  0  0  0
   10.9093    1.9802    0.0000 H   0  0  0  0  0  0  0  0  0  0  0  0
   10.7199    0.1781    0.0000 H   0  0  0  0  0  0  0  0  0  0  0  0
   11.2050    0.6210    0.0000 H   0  0  0  0  0  0  0  0  0  0  0  0
   11.2918    1.4462    0.0000 H   0  0  0  0  0  0  0  0  0  0  0  0
    7.9940    2.6413    0.0000 H   0  0  0  0  0  0  0  0  0  0  0  0
    8.2403    1.8832    0.0000 H   0  0  0  0  0  0  0  0  0  0  0  0
    7.8046    0.5553    0.0000 H   0  0  0  0  0  0  0  0  0  0  0  0
   11.3135    2.9261    0.0000 H   0  0  0  0  0  0  0  0  0  0  0  0
   10.9186   -0.8311    0.0000 H   0  0  0  0  0  0  0  0  0  0  0  0
    9.3665    3.5787    0.0000 H   0  0  0  0  0  0  0  0  0  0  0  0
    8.8784   -1.0647    0.0000 H   0  0  0  0  0  0  0  0  0  0  0  0
    7.4755   -0.6347    0.0000 H   0  0  0  0  0  0  0  0  0  0  0  0
    8.1626    4.6627    0.0000 H   0  0  0  0  0  0  0  0  0  0  0  0
    7.6875   -2.8373    0.0000 H   0  0  0  0  0  0  0  0  0  0  0  0
    8.0860   -2.1470    0.0000 H   0  0  0  0  0  0  0  0  0  0  0  0
    6.5940    3.3656    0.0000 H   0  0  0  0  0  0  0  0  0  0  0  0
    7.3737    3.1998    0.0000 H   0  0  0  0  0  0  0  0  0  0  0  0
    6.3974   -2.1720    0.0000 H   0  0  0  0  0  0  0  0  0  0  0  0
    5.9988   -2.8623    0.0000 H   0  0  0  0  0  0  0  0  0  0  0  0
    6.8280    4.7981    0.0000 H   0  0  0  0  0  0  0  0  0  0  0  0
    6.0484    4.9638    0.0000 H   0  0  0  0  0  0  0  0  0  0  0  0
    6.6094   -0.1347    0.0000 H   0  0  0  0  0  0  0  0  0  0  0  0
    4.8998    3.7257    0.0000 H   0  0  0  0  0  0  0  0  0  0  0  0
    5.6795    3.5600    0.0000 H   0  0  0  0  0  0  0  0  0  0  0  0
    5.2065   -3.9446    0.0000 H   0  0  0  0  0  0  0  0  0  0  0  0
    8.0124   -3.9446    0.0000 H   0  0  0  0  0  0  0  0  0  0  0  0
    5.2065   -5.5646    0.0000 H   0  0  0  0  0  0  0  0  0  0  0  0
    8.0124   -5.5646    0.0000 H   0  0  0  0  0  0  0  0  0  0  0  0
    3.5653    3.8610    0.0000 H   0  0  0  0  0  0  0  0  0  0  0  0
    6.6094   -6.3746    0.0000 H   0  0  0  0  0  0  0  0  0  0  0  0
    3.4396    5.5183    0.0000 H   0  0  0  0  0  0  0  0  0  0  0  0
    2.6600    5.6840    0.0000 H   0  0  0  0  0  0  0  0  0  0  0  0
    1.8084    5.4173    0.0000 H   0  0  0  0  0  0  0  0  0  0  0  0
    1.4103    4.6360    0.0000 H   0  0  0  0  0  0  0  0  0  0  0  0
    2.1916    4.2380    0.0000 H   0  0  0  0  0  0  0  0  0  0  0  0
  8  1  1  1  0  0  0
  1 40  1  0  0  0  0
  9  2  1  1  0  0  0
  2 41  1  0  0  0  0
 15  3  1  6  0  0  0
  3 54  1  0  0  0  0
  4 25  2  0  0  0  0
  5 25  1  0  0  0  0
  5 29  1  0  0  0  0
  5 61  1  0  0  0  0
  6  7  1  0  0  0  0
  6  8  1  0  0  0  0
  6 11  1  1  0  0  0
  6 31  1  0  0  0  0
  7  9  1  0  0  0  0
  7 12  1  6  0  0  0
  7 32  1  0  0  0  0
  8 10  1  0  0  0  0
  8 33  1  0  0  0  0
  9 10  1  0  0  0  0
  9 34  1  0  0  0  0
 10 35  1  0  0  0  0
 10 36  1  0  0  0  0
 11 13  1  0  0  0  0
 11 37  1  0  0  0  0
 11 38  1  0  0  0  0
 12 14  2  0  0  0  0
 12 39  1  0  0  0  0
 13 16  2  0  0  0  0
 13 42  1  0  0  0  0
 14 15  1  0  0  0  0
 14 43  1  0  0  0  0
 15 17  1  0  0  0  0
 15 44  1  0  0  0  0
 16 18  1  0  0  0  0
 16 45  1  0  0  0  0
 17 19  1  0  0  0  0
 17 46  1  0  0  0  0
 17 47  1  0  0  0  0
 18 20  1  0  0  0  0
 18 48  1  0  0  0  0
 18 49  1  0  0  0  0
 19 21  1  0  0  0  0
 19 50  1  0  0  0  0
 19 51  1  0  0  0  0
 20 22  1  0  0  0  0
 20 52  1  0  0  0  0
 20 53  1  0  0  0  0
 21 23  2  0  0  0  0
 21 24  1  0  0  0  0
 22 25  1  0  0  0  0
 22 55  1  0  0  0  0
 22 56  1  0  0  0  0
 23 26  1  0  0  0  0
 23 57  1  0  0  0  0
 24 27  2  0  0  0  0
 24 58  1  0  0  0  0
 26 28  2  0  0  0  0
 26 59  1  0  0  0  0
 27 28  1  0  0  0  0
 27 60  1  0  0  0  0
 28 62  1  0  0  0  0
 29 30  1  0  0  0  0
 29 63  1  0  0  0  0
 29 64  1  0  0  0  0
 30 65  1  0  0  0  0
 30 66  1  0  0  0  0
 30 67  1  0  0  0  0
M  END
> <PUBCHEM_COMPOUND_CID>
5311027

> <PUBCHEM_COMPOUND_CANONICALIZED>
1

> <PUBCHEM_CACTVS_COMPLEXITY>
541

> <PUBCHEM_CACTVS_HBOND_ACCEPTOR>
4

> <PUBCHEM_CACTVS_HBOND_DONOR>
4

> <PUBCHEM_CACTVS_ROTATABLE_BOND>
12

> <PUBCHEM_CACTVS_SUBSKEYS>
AAADcfB6OAAAAAAAAAAAAAAAAAAAAYAAAAAwAAAAAAAAAAABAAAAHgAQCAAADRThmAYyAILAAgCIAiFSEAACAAAgAAAIiIEIAIgINDKAkRCEcAAl1gCImAfYwKAOgAAAAAAAAAAAAAAAAAAAAIQADAAAAA==

> <PUBCHEM_IUPAC_OPENEYE_NAME>
(Z)-7-[(1R,2R,3R,5S)-3,5-dihydroxy-2-[(E,3S)-3-hydroxy-5-phenyl-pent-1-enyl]cyclopentyl]-N-ethyl-hept-5-enamide

> <PUBCHEM_IUPAC_CAS_NAME>
(Z)-7-[(1R,2R,3R,5S)-3,5-dihydroxy-2-[(E,3S)-3-hydroxy-5-phenylpent-1-enyl]cyclopentyl]-N-ethyl-5-heptenamide

> <PUBCHEM_IUPAC_NAME>
(Z)-7-[(1R,2R,3R,5S)-3,5-dihydroxy-2-[(E,3S)-3-hydroxy-5-phenylpent-1-enyl]cyclopentyl]-N-ethylhept-5-enamide

> <PUBCHEM_IUPAC_SYSTEMATIC_NAME>
(Z)-7-[(1R,2R,3R,5S)-3,5-bis(oxidanyl)-2-[(E,3S)-3-oxidanyl-5-phenyl-pent-1-enyl]cyclopentyl]-N-ethyl-hept-5-enamide

> <PUBCHEM_IUPAC_TRADITIONAL_NAME>
(Z)-7-[(1R,2R,3R,5S)-3,5-dihydroxy-2-[(E,3S)-3-hydroxy-5-phenyl-pent-1-enyl]cyclopentyl]-N-ethyl-hept-5-enamide

> <PUBCHEM_IUPAC_INCHI>
InChI=1S/C25H37NO4/c1-2-26-25(30)13-9-4-3-8-12-21-22(24(29)18-23(21)28)17-16-20(27)15-14-19-10-6-5-7-11-19/h3,5-8,10-11,16-17,20-24,27-29H,2,4,9,12-15,18H2,1H3,(H,26,30)/b8-3-,17-16+/t20-,21+,22+,23-,24+/m0/s1

> <PUBCHEM_IUPAC_INCHIKEY>
AQOKCDNYWBIDND-FTOWTWDKSA-N

> <PUBCHEM_XLOGP3>
2.8

> <PUBCHEM_EXACT_MASS>
415.272259

> <PUBCHEM_MOLECULAR_FORMULA>
C25H37NO4

> <PUBCHEM_MOLECULAR_WEIGHT>
415.56558

> <PUBCHEM_OPENEYE_CAN_SMILES>
CCNC(=O)CCCC=CCC1C(CC(C1C=CC(CCC2=CC=CC=C2)O)O)O

> <PUBCHEM_OPENEYE_ISO_SMILES>
CCNC(=O)CCC/C=C\C[C@H]1[C@H](C[C@H]([C@@H]1/C=C/[C@H](CCC2=CC=CC=C2)O)O)O

> <PUBCHEM_CACTVS_TPSA>
89.8

> <PUBCHEM_MONOISOTOPIC_WEIGHT>
415.272259

> <PUBCHEM_TOTAL_CHARGE>
0

> <PUBCHEM_HEAVY_ATOM_COUNT>
30

> <PUBCHEM_ATOM_DEF_STEREO_COUNT>
5

> <PUBCHEM_ATOM_UDEF_STEREO_COUNT>
0

> <PUBCHEM_BOND_DEF_STEREO_COUNT>
2

> <PUBCHEM_BOND_UDEF_STEREO_COUNT>
0

> <PUBCHEM_ISOTOPIC_ATOM_COUNT>
0

> <PUBCHEM_COMPONENT_COUNT>
1

> <PUBCHEM_CACTVS_TAUTO_COUNT>
2

> <PUBCHEM_COORDINATE_TYPE>
1
5
255

> <PUBCHEM_BONDANNOTATIONS>
8  1  5
9  2  5
21  23  8
21  24  8
23  26  8
24  27  8
26  28  8
27  28  8
15  3  6
6  11  5
7  12  6

$$$$
