5311039
  -OEChem-12171208252D

164167  0     1  0  0  0  0  0999 V2000
   11.8302    6.0986    0.0000 O   0  0  0  0  0  0  0  0  0  0  0  0
   10.1323    3.1578    0.0000 O   0  0  0  0  0  0  0  0  0  0  0  0
    5.0935    7.6922    0.0000 O   0  0  0  0  0  0  0  0  0  0  0  0
   11.9276    3.0269    0.0000 O   0  0  0  0  0  0  0  0  0  0  0  0
    7.1931    5.0669    0.0000 O   0  0  0  0  0  0  0  0  0  0  0  0
    7.7226    8.5318    0.0000 O   0  0  0  0  0  0  0  0  0  0  0  0
    6.0683    1.1868    0.0000 O   0  0  0  0  0  0  0  0  0  0  0  0
   10.2511    5.8313    0.0000 O   0  0  0  0  0  0  0  0  0  0  0  0
   12.2020    0.7683    0.0000 O   0  0  0  0  0  0  0  0  0  0  0  0
    6.5342    5.6577    0.0000 O   0  0  0  0  0  0  0  0  0  0  0  0
    8.7663    7.5237    0.0000 O   0  0  0  0  0  0  0  0  0  0  0  0
    9.9320    2.2220    0.0000 O   0  0  0  0  0  0  0  0  0  0  0  0
    8.9661   -0.4863    0.0000 O   0  0  0  0  0  0  0  0  0  0  0  0
   11.8374    9.7218    0.0000 O   0  0  0  0  0  0  0  0  0  0  0  0
   10.9983    3.6577    0.0000 N   0  0  0  0  0  0  0  0  0  0  0  0
    5.2023    6.0328    0.0000 N   0  0  0  0  0  0  0  0  0  0  0  0
    8.4002    4.1577    0.0000 N   0  0  0  0  0  0  0  0  0  0  0  0
    6.3271    3.5669    0.0000 N   0  0  0  0  0  0  0  0  0  0  0  0
    7.5342    6.6577    0.0000 N   0  0  0  0  0  0  0  0  0  0  0  0
    9.6732    1.2561    0.0000 N   0  0  0  0  0  0  0  0  0  0  0  0
    4.6200    2.8598    0.0000 N   0  0  0  0  0  0  0  0  0  0  0  0
    7.7413    0.7385    0.0000 N   0  0  0  0  0  0  0  0  0  0  0  0
    5.3425   10.3581    0.0000 N   0  0  0  0  0  0  0  0  0  0  0  0
    2.6200    1.1277    0.0000 N   0  0  0  0  0  0  0  0  0  0  0  0
   10.1323    4.1577    0.0000 C   0  0  1  0  0  0  0  0  0  0  0  0
    5.4611    5.0669    0.0000 C   0  0  1  0  0  0  0  0  0  0  0  0
   10.3415    5.1295    0.0000 C   0  0  0  0  0  0  0  0  0  0  0  0
   11.3302    5.2325    0.0000 C   0  0  2  0  0  0  0  0  0  0  0  0
   11.7353    4.3247    0.0000 C   0  0  0  0  0  0  0  0  0  0  0  0
    4.6260    4.5276    0.0000 C   0  0  0  0  0  0  0  0  0  0  0  0
    4.2094    6.0823    0.0000 C   0  0  0  0  0  0  0  0  0  0  0  0
    3.8540    5.1539    0.0000 C   0  0  0  0  0  0  0  0  0  0  0  0
    6.6682    7.1577    0.0000 C   0  0  2  0  0  0  0  0  0  0  0  0
    9.2663    3.6577    0.0000 C   0  0  0  0  0  0  0  0  0  0  0  0
    5.7023    6.8988    0.0000 C   0  0  0  0  0  0  0  0  0  0  0  0
   10.9983    2.6577    0.0000 C   0  0  0  0  0  0  0  0  0  0  0  0
   10.6391    1.5149    0.0000 C   0  0  2  0  0  0  0  0  0  0  0  0
    6.3271    4.5669    0.0000 C   0  0  0  0  0  0  0  0  0  0  0  0
    8.4002    5.1577    0.0000 C   0  0  1  0  0  0  0  0  0  0  0  0
    6.7987    8.1491    0.0000 C   0  0  1  0  0  0  0  0  0  0  0  0
    5.6200    2.8598    0.0000 C   0  0  2  0  0  0  0  0  0  0  0  0
    6.3271    2.1527    0.0000 C   0  0  1  0  0  0  0  0  0  0  0  0
    9.2663    5.6577    0.0000 C   0  0  1  0  0  0  0  0  0  0  0  0
    7.2930    2.4115    0.0000 C   0  0  0  0  0  0  0  0  0  0  0  0
   11.2050    0.6904    0.0000 C   0  0  1  0  0  0  0  0  0  0  0  0
    7.5342    5.6577    0.0000 C   0  0  0  0  0  0  0  0  0  0  0  0
    8.0001    1.7044    0.0000 C   0  0  1  0  0  0  0  0  0  0  0  0
    6.0054    8.7579    0.0000 C   0  0  0  0  0  0  0  0  0  0  0  0
    8.9661    1.9632    0.0000 C   0  0  0  0  0  0  0  0  0  0  0  0
    9.2663    6.6577    0.0000 C   0  0  2  0  0  0  0  0  0  0  0  0
    5.4999   -7.6267    0.0000 C   0  0  3  0  0  0  0  0  0  0  0  0
   10.7739   -0.2119    0.0000 C   0  0  0  0  0  0  0  0  0  0  0  0
    5.7587   -8.5926    0.0000 C   0  0  0  0  0  0  0  0  0  0  0  0
    6.2070   -6.9196    0.0000 C   0  0  0  0  0  0  0  0  0  0  0  0
    6.1359    9.7493    0.0000 C   0  0  0  0  0  0  0  0  0  0  0  0
    5.0516   -9.2997    0.0000 C   0  0  3  0  0  0  0  0  0  0  0  0
    4.1200    1.9938    0.0000 C   0  0  0  0  0  0  0  0  0  0  0  0
    5.9482   -5.9537    0.0000 C   0  0  0  0  0  0  0  0  0  0  0  0
    9.9090    7.4237    0.0000 C   0  0  0  0  0  0  0  0  0  0  0  0
    6.6553   -5.2466    0.0000 C   0  0  0  0  0  0  0  0  0  0  0  0
    6.3965   -4.2806    0.0000 C   0  0  0  0  0  0  0  0  0  0  0  0
    8.0001   -0.2275    0.0000 C   0  0  0  0  0  0  0  0  0  0  0  0
    4.5340   -7.3679    0.0000 C   0  0  0  0  0  0  0  0  0  0  0  0
    5.3104  -10.2657    0.0000 C   0  0  0  0  0  0  0  0  0  0  0  0
    7.1036   -3.5735    0.0000 C   0  0  0  0  0  0  0  0  0  0  0  0
    7.2930   -0.9346    0.0000 C   0  0  0  0  0  0  0  0  0  0  0  0
    6.8447   -2.6076    0.0000 C   0  0  0  0  0  0  0  0  0  0  0  0
    7.5518   -1.9005    0.0000 C   0  0  0  0  0  0  0  0  0  0  0  0
    3.1200    1.9938    0.0000 C   0  0  0  0  0  0  0  0  0  0  0  0
    4.0857   -9.0409    0.0000 C   0  0  0  0  0  0  0  0  0  0  0  0
   10.8939    7.2500    0.0000 C   0  0  0  0  0  0  0  0  0  0  0  0
    9.5670    8.3634    0.0000 C   0  0  0  0  0  0  0  0  0  0  0  0
    4.6033  -10.9728    0.0000 C   0  0  0  0  0  0  0  0  0  0  0  0
   11.5366    8.0161    0.0000 C   0  0  0  0  0  0  0  0  0  0  0  0
   10.2098    9.1294    0.0000 C   0  0  0  0  0  0  0  0  0  0  0  0
   11.1946    8.9558    0.0000 C   0  0  0  0  0  0  0  0  0  0  0  0
    9.4453    4.6582    0.0000 H   0  0  0  0  0  0  0  0  0  0  0  0
    5.4822    4.2172    0.0000 H   0  0  0  0  0  0  0  0  0  0  0  0
   10.3424    5.7495    0.0000 H   0  0  0  0  0  0  0  0  0  0  0  0
    9.7250    5.1955    0.0000 H   0  0  0  0  0  0  0  0  0  0  0  0
   11.9494    5.2004    0.0000 H   0  0  0  0  0  0  0  0  0  0  0  0
   12.1008    3.8239    0.0000 H   0  0  0  0  0  0  0  0  0  0  0  0
   12.2718    4.6355    0.0000 H   0  0  0  0  0  0  0  0  0  0  0  0
    4.1869    4.0899    0.0000 H   0  0  0  0  0  0  0  0  0  0  0  0
    5.0152    4.0450    0.0000 H   0  0  0  0  0  0  0  0  0  0  0  0
    4.3052    6.6948    0.0000 H   0  0  0  0  0  0  0  0  0  0  0  0
    3.6103    6.2419    0.0000 H   0  0  0  0  0  0  0  0  0  0  0  0
    3.3015    5.4352    0.0000 H   0  0  0  0  0  0  0  0  0  0  0  0
    3.5161    4.6340    0.0000 H   0  0  0  0  0  0  0  0  0  0  0  0
    7.4305    7.5336    0.0000 H   0  0  0  0  0  0  0  0  0  0  0  0
   10.3447    0.7175    0.0000 H   0  0  0  0  0  0  0  0  0  0  0  0
    9.1364    4.7327    0.0000 H   0  0  0  0  0  0  0  0  0  0  0  0
    7.2906    7.7717    0.0000 H   0  0  0  0  0  0  0  0  0  0  0  0
    5.3827    2.2870    0.0000 H   0  0  0  0  0  0  0  0  0  0  0  0
    7.8633    3.8477    0.0000 H   0  0  0  0  0  0  0  0  0  0  0  0
    6.7655    1.7143    0.0000 H   0  0  0  0  0  0  0  0  0  0  0  0
    6.8999    3.3296    0.0000 H   0  0  0  0  0  0  0  0  0  0  0  0
    7.8442    7.1946    0.0000 H   0  0  0  0  0  0  0  0  0  0  0  0
    9.4783    5.0750    0.0000 H   0  0  0  0  0  0  0  0  0  0  0  0
    7.8009    2.7671    0.0000 H   0  0  0  0  0  0  0  0  0  0  0  0
    7.0310    2.9734    0.0000 H   0  0  0  0  0  0  0  0  0  0  0  0
   11.5559    0.1793    0.0000 H   0  0  0  0  0  0  0  0  0  0  0  0
    7.4013    1.5439    0.0000 H   0  0  0  0  0  0  0  0  0  0  0  0
   12.4502    6.0986    0.0000 H   0  0  0  0  0  0  0  0  0  0  0  0
    9.5127    0.6572    0.0000 H   0  0  0  0  0  0  0  0  0  0  0  0
    5.4141    8.9443    0.0000 H   0  0  0  0  0  0  0  0  0  0  0  0
    5.7191    8.2079    0.0000 H   0  0  0  0  0  0  0  0  0  0  0  0
    8.6674    6.4972    0.0000 H   0  0  0  0  0  0  0  0  0  0  0  0
    4.3100    3.3967    0.0000 H   0  0  0  0  0  0  0  0  0  0  0  0
    4.8988   -8.2277    0.0000 H   0  0  0  0  0  0  0  0  0  0  0  0
   10.2145    0.0554    0.0000 H   0  0  0  0  0  0  0  0  0  0  0  0
   10.5067   -0.7713    0.0000 H   0  0  0  0  0  0  0  0  0  0  0  0
   11.3334   -0.4791    0.0000 H   0  0  0  0  0  0  0  0  0  0  0  0
    6.1143   -9.1005    0.0000 H   0  0  0  0  0  0  0  0  0  0  0  0
    6.3206   -8.3306    0.0000 H   0  0  0  0  0  0  0  0  0  0  0  0
    7.1424    0.5780    0.0000 H   0  0  0  0  0  0  0  0  0  0  0  0
    6.5626   -7.4275    0.0000 H   0  0  0  0  0  0  0  0  0  0  0  0
    6.7689   -6.6576    0.0000 H   0  0  0  0  0  0  0  0  0  0  0  0
    6.7272    9.5629    0.0000 H   0  0  0  0  0  0  0  0  0  0  0  0
    6.4222   10.2993    0.0000 H   0  0  0  0  0  0  0  0  0  0  0  0
    4.8316   -8.4787    0.0000 H   0  0  0  0  0  0  0  0  0  0  0  0
    7.8035    9.1465    0.0000 H   0  0  0  0  0  0  0  0  0  0  0  0
    4.0123    1.3832    0.0000 H   0  0  0  0  0  0  0  0  0  0  0  0
    4.7026    1.7817    0.0000 H   0  0  0  0  0  0  0  0  0  0  0  0
    5.5926   -5.4458    0.0000 H   0  0  0  0  0  0  0  0  0  0  0  0
    5.3863   -6.2157    0.0000 H   0  0  0  0  0  0  0  0  0  0  0  0
    5.4694    1.0263    0.0000 H   0  0  0  0  0  0  0  0  0  0  0  0
    7.0109   -5.7544    0.0000 H   0  0  0  0  0  0  0  0  0  0  0  0
    7.2172   -4.9845    0.0000 H   0  0  0  0  0  0  0  0  0  0  0  0
   10.6496    6.3062    0.0000 H   0  0  0  0  0  0  0  0  0  0  0  0
   12.5528    0.2571    0.0000 H   0  0  0  0  0  0  0  0  0  0  0  0
    6.0408   -3.7728    0.0000 H   0  0  0  0  0  0  0  0  0  0  0  0
    5.8346   -4.5427    0.0000 H   0  0  0  0  0  0  0  0  0  0  0  0
    4.6944   -6.7690    0.0000 H   0  0  0  0  0  0  0  0  0  0  0  0
    3.9351   -7.2074    0.0000 H   0  0  0  0  0  0  0  0  0  0  0  0
    4.3735   -7.9668    0.0000 H   0  0  0  0  0  0  0  0  0  0  0  0
    5.6660  -10.7735    0.0000 H   0  0  0  0  0  0  0  0  0  0  0  0
    5.8723  -10.0036    0.0000 H   0  0  0  0  0  0  0  0  0  0  0  0
    7.4592   -4.0814    0.0000 H   0  0  0  0  0  0  0  0  0  0  0  0
    7.6655   -3.3115    0.0000 H   0  0  0  0  0  0  0  0  0  0  0  0
    6.9374   -0.4267    0.0000 H   0  0  0  0  0  0  0  0  0  0  0  0
    6.7311   -1.1966    0.0000 H   0  0  0  0  0  0  0  0  0  0  0  0
    6.4891   -2.0997    0.0000 H   0  0  0  0  0  0  0  0  0  0  0  0
    6.2828   -2.8696    0.0000 H   0  0  0  0  0  0  0  0  0  0  0  0
    7.9075   -2.4084    0.0000 H   0  0  0  0  0  0  0  0  0  0  0  0
    8.1138   -1.6385    0.0000 H   0  0  0  0  0  0  0  0  0  0  0  0
    4.2461   -8.4420    0.0000 H   0  0  0  0  0  0  0  0  0  0  0  0
    3.4868   -8.8804    0.0000 H   0  0  0  0  0  0  0  0  0  0  0  0
    3.9252   -9.6398    0.0000 H   0  0  0  0  0  0  0  0  0  0  0  0
    3.2277    2.6043    0.0000 H   0  0  0  0  0  0  0  0  0  0  0  0
    2.5374    2.2058    0.0000 H   0  0  0  0  0  0  0  0  0  0  0  0
    8.7663    8.1437    0.0000 H   0  0  0  0  0  0  0  0  0  0  0  0
    5.4235   10.9728    0.0000 H   0  0  0  0  0  0  0  0  0  0  0  0
    4.7697   10.1208    0.0000 H   0  0  0  0  0  0  0  0  0  0  0  0
   11.1059    6.6674    0.0000 H   0  0  0  0  0  0  0  0  0  0  0  0
    8.9564    8.4711    0.0000 H   0  0  0  0  0  0  0  0  0  0  0  0
    4.1649  -10.5344    0.0000 H   0  0  0  0  0  0  0  0  0  0  0  0
    4.1649  -11.4112    0.0000 H   0  0  0  0  0  0  0  0  0  0  0  0
    5.0417  -11.4112    0.0000 H   0  0  0  0  0  0  0  0  0  0  0  0
   12.1472    7.9084    0.0000 H   0  0  0  0  0  0  0  0  0  0  0  0
    9.9978    9.7120    0.0000 H   0  0  0  0  0  0  0  0  0  0  0  0
    2.0000    1.1277    0.0000 H   0  0  0  0  0  0  0  0  0  0  0  0
    2.9300    0.5908    0.0000 H   0  0  0  0  0  0  0  0  0  0  0  0
   11.6254   10.3044    0.0000 H   0  0  0  0  0  0  0  0  0  0  0  0
 28  1  1  1  0  0  0
  1104  1  0  0  0  0
  2 34  2  0  0  0  0
  3 35  2  0  0  0  0
  4 36  2  0  0  0  0
  5 38  2  0  0  0  0
 40  6  1  1  0  0  0
  6122  1  0  0  0  0
 42  7  1  1  0  0  0
  7127  1  0  0  0  0
 43  8  1  1  0  0  0
  8130  1  0  0  0  0
 45  9  1  6  0  0  0
  9131  1  0  0  0  0
 10 46  2  0  0  0  0
 50 11  1  1  0  0  0
 11152  1  0  0  0  0
 12 49  2  0  0  0  0
 13 62  2  0  0  0  0
 14 76  1  0  0  0  0
 14164  1  0  0  0  0
 15 25  1  0  0  0  0
 15 29  1  0  0  0  0
 15 36  1  0  0  0  0
 16 26  1  0  0  0  0
 16 31  1  0  0  0  0
 16 35  1  0  0  0  0
 17 34  1  0  0  0  0
 17 39  1  0  0  0  0
 17 95  1  0  0  0  0
 18 38  1  0  0  0  0
 18 41  1  0  0  0  0
 18 97  1  0  0  0  0
 19 33  1  0  0  0  0
 19 46  1  0  0  0  0
 19 98  1  0  0  0  0
 20 37  1  0  0  0  0
 20 49  1  0  0  0  0
 20105  1  0  0  0  0
 41 21  1  1  0  0  0
 21 57  1  0  0  0  0
 21109  1  0  0  0  0
 47 22  1  1  0  0  0
 22 62  1  0  0  0  0
 22116  1  0  0  0  0
 23 55  1  0  0  0  0
 23153  1  0  0  0  0
 23154  1  0  0  0  0
 24 69  1  0  0  0  0
 24162  1  0  0  0  0
 24163  1  0  0  0  0
 25 27  1  0  0  0  0
 25 34  1  0  0  0  0
 25 77  1  1  0  0  0
 26 30  1  0  0  0  0
 26 38  1  0  0  0  0
 26 78  1  1  0  0  0
 27 28  1  0  0  0  0
 27 79  1  0  0  0  0
 27 80  1  0  0  0  0
 28 29  1  0  0  0  0
 28 81  1  0  0  0  0
 29 82  1  0  0  0  0
 29 83  1  0  0  0  0
 30 32  1  0  0  0  0
 30 84  1  0  0  0  0
 30 85  1  0  0  0  0
 31 32  1  0  0  0  0
 31 86  1  0  0  0  0
 31 87  1  0  0  0  0
 32 88  1  0  0  0  0
 32 89  1  0  0  0  0
 33 35  1  0  0  0  0
 33 40  1  0  0  0  0
 33 90  1  1  0  0  0
 36 37  1  0  0  0  0
 37 45  1  0  0  0  0
 37 91  1  1  0  0  0
 39 43  1  0  0  0  0
 39 46  1  0  0  0  0
 39 92  1  1  0  0  0
 40 48  1  0  0  0  0
 40 93  1  0  0  0  0
 41 42  1  0  0  0  0
 41 94  1  0  0  0  0
 42 44  1  0  0  0  0
 42 96  1  0  0  0  0
 43 50  1  0  0  0  0
 43 99  1  0  0  0  0
 44 47  1  0  0  0  0
 44100  1  0  0  0  0
 44101  1  0  0  0  0
 45 52  1  0  0  0  0
 45102  1  0  0  0  0
 47 49  1  0  0  0  0
 47103  1  0  0  0  0
 48 55  1  0  0  0  0
 48106  1  0  0  0  0
 48107  1  0  0  0  0
 50 59  1  0  0  0  0
 50108  1  0  0  0  0
 51 53  1  0  0  0  0
 51 54  1  0  0  0  0
 51 63  1  0  0  0  0
 51110  1  0  0  0  0
 52111  1  0  0  0  0
 52112  1  0  0  0  0
 52113  1  0  0  0  0
 53 56  1  0  0  0  0
 53114  1  0  0  0  0
 53115  1  0  0  0  0
 54 58  1  0  0  0  0
 54117  1  0  0  0  0
 54118  1  0  0  0  0
 55119  1  0  0  0  0
 55120  1  0  0  0  0
 56 64  1  0  0  0  0
 56 70  1  0  0  0  0
 56121  1  0  0  0  0
 57 69  1  0  0  0  0
 57123  1  0  0  0  0
 57124  1  0  0  0  0
 58 60  1  0  0  0  0
 58125  1  0  0  0  0
 58126  1  0  0  0  0
 59 71  2  0  0  0  0
 59 72  1  0  0  0  0
 60 61  1  0  0  0  0
 60128  1  0  0  0  0
 60129  1  0  0  0  0
 61 65  1  0  0  0  0
 61132  1  0  0  0  0
 61133  1  0  0  0  0
 62 66  1  0  0  0  0
 63134  1  0  0  0  0
 63135  1  0  0  0  0
 63136  1  0  0  0  0
 64 73  1  0  0  0  0
 64137  1  0  0  0  0
 64138  1  0  0  0  0
 65 67  1  0  0  0  0
 65139  1  0  0  0  0
 65140  1  0  0  0  0
 66 68  1  0  0  0  0
 66141  1  0  0  0  0
 66142  1  0  0  0  0
 67 68  1  0  0  0  0
 67143  1  0  0  0  0
 67144  1  0  0  0  0
 68145  1  0  0  0  0
 68146  1  0  0  0  0
 69150  1  0  0  0  0
 69151  1  0  0  0  0
 70147  1  0  0  0  0
 70148  1  0  0  0  0
 70149  1  0  0  0  0
 71 74  1  0  0  0  0
 71155  1  0  0  0  0
 72 75  2  0  0  0  0
 72156  1  0  0  0  0
 73157  1  0  0  0  0
 73158  1  0  0  0  0
 73159  1  0  0  0  0
 74 76  2  0  0  0  0
 74160  1  0  0  0  0
 75 76  1  0  0  0  0
 75161  1  0  0  0  0
M  END
> <PUBCHEM_COMPOUND_CID>
5311039

> <PUBCHEM_COMPOUND_CANONICALIZED>
1

> <PUBCHEM_CACTVS_COMPLEXITY>
1860

> <PUBCHEM_CACTVS_HBOND_ACCEPTOR>
17

> <PUBCHEM_CACTVS_HBOND_DONOR>
15

> <PUBCHEM_CACTVS_ROTATABLE_BOND>
23

> <PUBCHEM_CACTVS_SUBSKEYS>
AAADcfB//AAAAAAAAAAAAAAAAAAAAWLAAAAwAAAAAAAAAAABAAAAHgAQCAAADTzhmAYzBoPAAgCIAiFSEAACAAAgIAAIiIGOCIiLdjaCkTKUcAAu9xOZmAe66eSOIAAAAAAAAABAAAAAAAAAAAAAAAAAAA==

> <PUBCHEM_IUPAC_INCHI>
InChI=1S/C52H88N10O14/c1-5-29(2)25-30(3)13-10-8-6-7-9-11-15-40(68)56-35-27-39(67)46(55-23-22-54)60-48(72)36-14-12-24-61(36)52(76)42(38(66)20-21-53)58-50(74)43(45(70)44(69)32-16-18-33(64)19-17-32)59-49(73)37-26-34(65)28-62(37)51(75)41(31(4)63)57-47(35)71/h16-19,29-31,34-39,41-46,55,63-67,69-70H,5-15,20-28,53-54H2,1-4H3,(H,56,68)(H,57,71)(H,58,74)(H,59,73)(H,60,72)/t29?,30?,31-,34-,35+,36+,37+,38-,39-,41+,42+,43+,44+,45+,46+/m1/s1

> <PUBCHEM_IUPAC_INCHIKEY>
AHIZXSGLMAMETL-LQZKFGBMSA-N

> <PUBCHEM_XLOGP3_AA>
1.3

> <PUBCHEM_EXACT_MASS>
1076.648148

> <PUBCHEM_MOLECULAR_FORMULA>
C52H88N10O14

> <PUBCHEM_MOLECULAR_WEIGHT>
1077.31372

> <PUBCHEM_OPENEYE_CAN_SMILES>
CCC(C)CC(C)CCCCCCCCC(=O)NC1CC(C(NC(=O)C2CCCN2C(=O)C(NC(=O)C(NC(=O)C3CC(CN3C(=O)C(NC1=O)C(C)O)O)C(C(C4=CC=C(C=C4)O)O)O)C(CCN)O)NCCN)O

> <PUBCHEM_OPENEYE_ISO_SMILES>
CCC(C)CC(C)CCCCCCCCC(=O)N[C@H]1C[C@H]([C@H](NC(=O)[C@@H]2CCCN2C(=O)[C@@H](NC(=O)[C@@H](NC(=O)[C@@H]3C[C@H](CN3C(=O)[C@@H](NC1=O)[C@@H](C)O)O)[C@@H]([C@H](C4=CC=C(C=C4)O)O)O)[C@@H](CCN)O)NCCN)O

> <PUBCHEM_CACTVS_TPSA>
392

> <PUBCHEM_MONOISOTOPIC_WEIGHT>
1076.648148

> <PUBCHEM_TOTAL_CHARGE>
0

> <PUBCHEM_HEAVY_ATOM_COUNT>
76

> <PUBCHEM_ATOM_DEF_STEREO_COUNT>
13

> <PUBCHEM_ATOM_UDEF_STEREO_COUNT>
2

> <PUBCHEM_BOND_DEF_STEREO_COUNT>
0

> <PUBCHEM_BOND_UDEF_STEREO_COUNT>
0

> <PUBCHEM_ISOTOPIC_ATOM_COUNT>
0

> <PUBCHEM_COMPONENT_COUNT>
1

> <PUBCHEM_CACTVS_TAUTO_COUNT>
1001

> <PUBCHEM_COORDINATE_TYPE>
1
5
255

> <PUBCHEM_BONDANNOTATIONS>
28  1  5
50  11  5
41  21  5
47  22  5
25  77  5
26  78  5
33  90  5
37  91  5
39  92  5
51  110  3
56  121  3
59  71  8
59  72  8
40  6  5
42  7  5
71  74  8
72  75  8
74  76  8
75  76  8
43  8  5
45  9  6

$$$$
