5311048
  -OEChem-12171208252D

  9  8  0     0  0  0  0  0  0999 V2000
    2.9030    0.8660    0.0000 Cl  0  0  0  0  0  0  0  0  0  0  0  0
    3.9030   -0.8660    0.0000 Cl  0  0  0  0  0  0  0  0  0  0  0  0
    4.2690    0.5000    0.0000 N   0  0  0  0  0  0  0  0  0  0  0  0
    2.5369   -0.5000    0.0000 N   0  0  0  0  0  0  0  0  0  0  0  0
    3.4030    0.0000    0.0000 C   0  0  0  0  0  0  0  0  0  0  0  0
    4.8059    0.1900    0.0000 H   0  0  0  0  0  0  0  0  0  0  0  0
    4.2690    1.1200    0.0000 H   0  0  0  0  0  0  0  0  0  0  0  0
    2.0000   -0.1900    0.0000 H   0  0  0  0  0  0  0  0  0  0  0  0
    2.5369   -1.1200    0.0000 H   0  0  0  0  0  0  0  0  0  0  0  0
  1  5  1  0  0  0  0
  2  5  1  0  0  0  0
  3  5  1  0  0  0  0
  3  6  1  0  0  0  0
  3  7  1  0  0  0  0
  4  5  1  0  0  0  0
  4  8  1  0  0  0  0
  4  9  1  0  0  0  0
M  END
> <PUBCHEM_COMPOUND_CID>
5311048

> <PUBCHEM_COMPOUND_CANONICALIZED>
1

> <PUBCHEM_CACTVS_COMPLEXITY>
30.6

> <PUBCHEM_CACTVS_HBOND_ACCEPTOR>
2

> <PUBCHEM_CACTVS_HBOND_DONOR>
2

> <PUBCHEM_CACTVS_ROTATABLE_BOND>
0

> <PUBCHEM_CACTVS_SUBSKEYS>
AAADcYADAAAGAAAAAAAAAAAAAAAAAAAAAAAAAAAAAAAAAAAAAAAABAIQAAAAAAAAAIABAABAAAAAAAAAAAAAAAAAAAAAAAAAAAAAAAAAAAAAAAAAAAAAAAAAAAAAAAAAAAAAAAAAAAAAAAAAAAAAAAAAAA==

> <PUBCHEM_IUPAC_OPENEYE_NAME>
dichloromethanediamine

> <PUBCHEM_IUPAC_CAS_NAME>
dichloromethanediamine

> <PUBCHEM_IUPAC_NAME>
dichloromethanediamine

> <PUBCHEM_IUPAC_SYSTEMATIC_NAME>
bis(chloranyl)methanediamine

> <PUBCHEM_IUPAC_TRADITIONAL_NAME>
[amino(dichloro)methyl]amine

> <PUBCHEM_IUPAC_INCHI>
InChI=1S/CH4Cl2N2/c2-1(3,4)5/h4-5H2

> <PUBCHEM_IUPAC_INCHIKEY>
ZSWDZQGVDJWLBK-UHFFFAOYSA-N

> <PUBCHEM_XLOGP3_AA>
-0.3

> <PUBCHEM_EXACT_MASS>
113.975153

> <PUBCHEM_MOLECULAR_FORMULA>
CH4Cl2N2

> <PUBCHEM_MOLECULAR_WEIGHT>
114.96186

> <PUBCHEM_OPENEYE_CAN_SMILES>
C(N)(N)(Cl)Cl

> <PUBCHEM_OPENEYE_ISO_SMILES>
C(N)(N)(Cl)Cl

> <PUBCHEM_CACTVS_TPSA>
52

> <PUBCHEM_MONOISOTOPIC_WEIGHT>
113.975153

> <PUBCHEM_TOTAL_CHARGE>
0

> <PUBCHEM_HEAVY_ATOM_COUNT>
5

> <PUBCHEM_ATOM_DEF_STEREO_COUNT>
0

> <PUBCHEM_ATOM_UDEF_STEREO_COUNT>
0

> <PUBCHEM_BOND_DEF_STEREO_COUNT>
0

> <PUBCHEM_BOND_UDEF_STEREO_COUNT>
0

> <PUBCHEM_ISOTOPIC_ATOM_COUNT>
0

> <PUBCHEM_COMPONENT_COUNT>
1

> <PUBCHEM_CACTVS_TAUTO_COUNT>
1

> <PUBCHEM_COORDINATE_TYPE>
1
5
255

$$$$
