5372
  -OEChem-12171208132D

126129  0     1  0  0  0  0  0999 V2000
    9.7352   -2.9124    0.0000 O   0  0  0  0  0  0  0  0  0  0  0  0
    8.5082   -4.3652    0.0000 O   0  0  0  0  0  0  0  0  0  0  0  0
    7.1371   -2.4124    0.0000 O   0  0  0  0  0  0  0  0  0  0  0  0
    9.7352   -1.9124    0.0000 O   0  0  0  0  0  0  0  0  0  0  0  0
    9.6371   -0.6498    0.0000 O   0  0  0  0  0  0  0  0  0  0  0  0
    8.6371    4.5464    0.0000 O   0  0  0  0  0  0  0  0  0  0  0  0
   12.1101   -3.6784    0.0000 O   0  0  0  0  0  0  0  0  0  0  0  0
    6.6371    4.5464    0.0000 O   0  0  0  0  0  0  0  0  0  0  0  0
   13.1993   -2.9124    0.0000 O   0  0  0  0  0  0  0  0  0  0  0  0
    6.7544   -0.5919    0.0000 O   0  0  0  0  0  0  0  0  0  0  0  0
   11.5034   -1.8438    0.0000 O   0  0  0  0  0  0  0  0  0  0  0  0
    5.3336   -0.9727    0.0000 O   0  0  0  0  0  0  0  0  0  0  0  0
   12.3333   -1.4124    0.0000 N   0  0  0  0  0  0  0  0  0  0  0  0
    8.8692   -2.4124    0.0000 C   0  0  3  0  0  0  0  0  0  0  0  0
   10.6130   -3.4282    0.0000 C   0  0  3  0  0  0  0  0  0  0  0  0
    8.8574   -3.4282    0.0000 C   0  0  3  0  0  0  0  0  0  0  0  0
    9.7352   -3.9395    0.0000 C   0  0  0  0  0  0  0  0  0  0  0  0
   10.6012   -2.4124    0.0000 C   0  0  3  0  0  0  0  0  0  0  0  0
    8.0032   -2.9124    0.0000 C   0  0  3  0  0  0  0  0  0  0  0  0
    8.0032   -3.9124    0.0000 C   0  0  0  0  0  0  0  0  0  0  0  0
    7.1371   -4.4124    0.0000 C   0  0  3  0  0  0  0  0  0  0  0  0
   10.9622   -4.3652    0.0000 C   0  0  0  0  0  0  0  0  0  0  0  0
    8.1371    1.9483    0.0000 C   0  0  3  0  0  0  0  0  0  0  0  0
   11.4673   -2.9124    0.0000 C   0  0  0  0  0  0  0  0  0  0  0  0
    8.6371    2.8143    0.0000 C   0  0  0  0  0  0  0  0  0  0  0  0
    7.1371    1.9483    0.0000 C   0  0  0  0  0  0  0  0  0  0  0  0
    8.1371    3.6803    0.0000 C   0  0  3  0  0  0  0  0  0  0  0  0
    7.1371    3.6803    0.0000 C   0  0  3  0  0  0  0  0  0  0  0  0
    6.6371    2.8143    0.0000 C   0  0  0  0  0  0  0  0  0  0  0  0
   11.4673   -0.9124    0.0000 C   0  0  3  0  0  0  0  0  0  0  0  0
    6.2711   -3.9124    0.0000 C   0  0  0  0  0  0  0  0  0  0  0  0
   12.3333   -2.4124    0.0000 C   0  0  0  0  0  0  0  0  0  0  0  0
    8.6371   -0.6498    0.0000 C   0  0  3  0  0  0  0  0  0  0  0  0
   11.4673    0.0876    0.0000 C   0  0  0  0  0  0  0  0  0  0  0  0
   13.1993   -0.9124    0.0000 C   0  0  0  0  0  0  0  0  0  0  0  0
    8.6371    1.0823    0.0000 C   0  0  0  0  0  0  0  0  0  0  0  0
    8.1371   -1.5158    0.0000 C   0  0  3  0  0  0  0  0  0  0  0  0
   12.3333    0.5876    0.0000 C   0  0  0  0  0  0  0  0  0  0  0  0
   13.1993    0.0876    0.0000 C   0  0  0  0  0  0  0  0  0  0  0  0
    8.1371    0.2162    0.0000 C   0  0  0  0  0  0  0  0  0  0  0  0
    7.1371   -5.4124    0.0000 C   0  0  0  0  0  0  0  0  0  0  0  0
    7.1371   -1.5158    0.0000 C   0  0  3  0  0  0  0  0  0  0  0  0
   10.6012   -1.4124    0.0000 C   0  0  0  0  0  0  0  0  0  0  0  0
    5.3052   -4.1712    0.0000 C   0  0  0  0  0  0  0  0  0  0  0  0
    9.1451   -5.1362    0.0000 C   0  0  0  0  0  0  0  0  0  0  0  0
    6.2711   -2.9124    0.0000 C   0  0  0  0  0  0  0  0  0  0  0  0
    6.4300   -2.2229    0.0000 C   0  0  0  0  0  0  0  0  0  0  0  0
    9.1371   -1.5158    0.0000 C   0  0  0  0  0  0  0  0  0  0  0  0
    4.5981   -2.4641    0.0000 C   0  0  3  0  0  0  0  0  0  0  0  0
    7.1371    0.2162    0.0000 C   0  0  0  0  0  0  0  0  0  0  0  0
    4.5981   -3.4641    0.0000 C   0  0  0  0  0  0  0  0  0  0  0  0
    5.4641   -1.9641    0.0000 C   0  0  0  0  0  0  0  0  0  0  0  0
    5.0464   -5.1371    0.0000 C   0  0  0  0  0  0  0  0  0  0  0  0
    3.7320   -1.9641    0.0000 C   0  0  0  0  0  0  0  0  0  0  0  0
    8.1371    5.4124    0.0000 C   0  0  0  0  0  0  0  0  0  0  0  0
    2.8660   -2.4641    0.0000 C   0  0  0  0  0  0  0  0  0  0  0  0
    2.0000   -1.9641    0.0000 C   0  0  0  0  0  0  0  0  0  0  0  0
    8.8692   -1.5624    0.0000 H   0  0  0  0  0  0  0  0  0  0  0  0
   11.4486   -3.2725    0.0000 H   0  0  0  0  0  0  0  0  0  0  0  0
    8.0218   -3.2725    0.0000 H   0  0  0  0  0  0  0  0  0  0  0  0
    9.3361   -4.4139    0.0000 H   0  0  0  0  0  0  0  0  0  0  0  0
   10.1343   -4.4139    0.0000 H   0  0  0  0  0  0  0  0  0  0  0  0
    8.0032   -2.0624    0.0000 H   0  0  0  0  0  0  0  0  0  0  0  0
    8.2152   -4.4950    0.0000 H   0  0  0  0  0  0  0  0  0  0  0  0
    8.6137   -3.8047    0.0000 H   0  0  0  0  0  0  0  0  0  0  0  0
    7.8733   -4.8374    0.0000 H   0  0  0  0  0  0  0  0  0  0  0  0
   10.3813   -4.5817    0.0000 H   0  0  0  0  0  0  0  0  0  0  0  0
   11.1788   -4.9461    0.0000 H   0  0  0  0  0  0  0  0  0  0  0  0
   11.5432   -4.1486    0.0000 H   0  0  0  0  0  0  0  0  0  0  0  0
    8.9871    1.9483    0.0000 H   0  0  0  0  0  0  0  0  0  0  0  0
    9.1121    2.4158    0.0000 H   0  0  0  0  0  0  0  0  0  0  0  0
    9.1121    3.2128    0.0000 H   0  0  0  0  0  0  0  0  0  0  0  0
    6.5545    1.7362    0.0000 H   0  0  0  0  0  0  0  0  0  0  0  0
    7.2448    1.3377    0.0000 H   0  0  0  0  0  0  0  0  0  0  0  0
    7.7121    4.4165    0.0000 H   0  0  0  0  0  0  0  0  0  0  0  0
    7.5621    4.4165    0.0000 H   0  0  0  0  0  0  0  0  0  0  0  0
    6.1622    3.2128    0.0000 H   0  0  0  0  0  0  0  0  0  0  0  0
    6.1622    2.4158    0.0000 H   0  0  0  0  0  0  0  0  0  0  0  0
   12.2034   -0.4874    0.0000 H   0  0  0  0  0  0  0  0  0  0  0  0
    6.7095   -3.4740    0.0000 H   0  0  0  0  0  0  0  0  0  0  0  0
    5.9611   -3.3754    0.0000 H   0  0  0  0  0  0  0  0  0  0  0  0
    9.0621    0.0863    0.0000 H   0  0  0  0  0  0  0  0  0  0  0  0
   11.2552    0.6702    0.0000 H   0  0  0  0  0  0  0  0  0  0  0  0
   10.8567   -0.0201    0.0000 H   0  0  0  0  0  0  0  0  0  0  0  0
    9.7352   -1.2924    0.0000 H   0  0  0  0  0  0  0  0  0  0  0  0
   13.4114   -1.4950    0.0000 H   0  0  0  0  0  0  0  0  0  0  0  0
   13.8099   -0.8047    0.0000 H   0  0  0  0  0  0  0  0  0  0  0  0
    9.2571    1.0823    0.0000 H   0  0  0  0  0  0  0  0  0  0  0  0
    8.1371   -2.3658    0.0000 H   0  0  0  0  0  0  0  0  0  0  0  0
   12.7318    1.0626    0.0000 H   0  0  0  0  0  0  0  0  0  0  0  0
   11.9348    1.0626    0.0000 H   0  0  0  0  0  0  0  0  0  0  0  0
   13.8099   -0.0201    0.0000 H   0  0  0  0  0  0  0  0  0  0  0  0
   13.4114    0.6702    0.0000 H   0  0  0  0  0  0  0  0  0  0  0  0
    6.5171   -5.4124    0.0000 H   0  0  0  0  0  0  0  0  0  0  0  0
    7.1371   -6.0324    0.0000 H   0  0  0  0  0  0  0  0  0  0  0  0
    7.7571   -5.4124    0.0000 H   0  0  0  0  0  0  0  0  0  0  0  0
    6.3035   -1.3500    0.0000 H   0  0  0  0  0  0  0  0  0  0  0  0
    8.6671   -5.5310    0.0000 H   0  0  0  0  0  0  0  0  0  0  0  0
    9.5400   -5.6141    0.0000 H   0  0  0  0  0  0  0  0  0  0  0  0
    9.6231   -4.7413    0.0000 H   0  0  0  0  0  0  0  0  0  0  0  0
    6.1680   -2.7848    0.0000 H   0  0  0  0  0  0  0  0  0  0  0  0
    6.9379   -2.5785    0.0000 H   0  0  0  0  0  0  0  0  0  0  0  0
    5.9611   -2.3754    0.0000 H   0  0  0  0  0  0  0  0  0  0  0  0
    5.7342   -3.2224    0.0000 H   0  0  0  0  0  0  0  0  0  0  0  0
    6.5811   -3.4493    0.0000 H   0  0  0  0  0  0  0  0  0  0  0  0
    9.1371   -2.1358    0.0000 H   0  0  0  0  0  0  0  0  0  0  0  0
    9.7571   -1.5158    0.0000 H   0  0  0  0  0  0  0  0  0  0  0  0
    9.1371   -0.8958    0.0000 H   0  0  0  0  0  0  0  0  0  0  0  0
    4.5981   -1.6141    0.0000 H   0  0  0  0  0  0  0  0  0  0  0  0
    7.1371    0.8362    0.0000 H   0  0  0  0  0  0  0  0  0  0  0  0
    6.5171    0.2162    0.0000 H   0  0  0  0  0  0  0  0  0  0  0  0
    7.1371   -0.4038    0.0000 H   0  0  0  0  0  0  0  0  0  0  0  0
    4.0253   -3.7014    0.0000 H   0  0  0  0  0  0  0  0  0  0  0  0
    6.0171    4.5464    0.0000 H   0  0  0  0  0  0  0  0  0  0  0  0
    4.4475   -4.9767    0.0000 H   0  0  0  0  0  0  0  0  0  0  0  0
    4.8859   -5.7360    0.0000 H   0  0  0  0  0  0  0  0  0  0  0  0
    5.6452   -5.2976    0.0000 H   0  0  0  0  0  0  0  0  0  0  0  0
    4.1306   -1.4892    0.0000 H   0  0  0  0  0  0  0  0  0  0  0  0
    3.3335   -1.4892    0.0000 H   0  0  0  0  0  0  0  0  0  0  0  0
    8.6741    5.7224    0.0000 H   0  0  0  0  0  0  0  0  0  0  0  0
    7.8271    5.9493    0.0000 H   0  0  0  0  0  0  0  0  0  0  0  0
    7.6002    5.1024    0.0000 H   0  0  0  0  0  0  0  0  0  0  0  0
    6.1398   -0.5110    0.0000 H   0  0  0  0  0  0  0  0  0  0  0  0
    2.8660   -3.0841    0.0000 H   0  0  0  0  0  0  0  0  0  0  0  0
    2.0000   -1.3441    0.0000 H   0  0  0  0  0  0  0  0  0  0  0  0
    1.4631   -2.2741    0.0000 H   0  0  0  0  0  0  0  0  0  0  0  0
  1 14  1  0  0  0  0
  1 18  1  0  0  0  0
  2 16  1  0  0  0  0
  2 45  1  0  0  0  0
  3 19  1  0  0  0  0
  3 46  1  0  0  0  0
  4 18  1  0  0  0  0
  4 85  1  0  0  0  0
  5 33  1  0  0  0  0
  5 43  1  0  0  0  0
  6 27  1  0  0  0  0
  6 55  1  0  0  0  0
  7 24  2  0  0  0  0
  8 28  1  0  0  0  0
  8114  1  0  0  0  0
  9 32  2  0  0  0  0
 10 42  1  0  0  0  0
 10123  1  0  0  0  0
 11 43  2  0  0  0  0
 12 52  2  0  0  0  0
 13 30  1  0  0  0  0
 13 32  1  0  0  0  0
 13 35  1  0  0  0  0
 14 16  1  0  0  0  0
 14 19  1  0  0  0  0
 14 58  1  0  0  0  0
 15 17  1  0  0  0  0
 15 18  1  0  0  0  0
 15 22  1  0  0  0  0
 15 59  1  0  0  0  0
 16 17  1  0  0  0  0
 16 60  1  0  0  0  0
 17 61  1  0  0  0  0
 17 62  1  0  0  0  0
 18 24  1  0  0  0  0
 19 20  1  0  0  0  0
 19 63  1  0  0  0  0
 20 21  1  0  0  0  0
 20 64  1  0  0  0  0
 20 65  1  0  0  0  0
 21 31  1  0  0  0  0
 21 41  1  0  0  0  0
 21 66  1  0  0  0  0
 22 67  1  0  0  0  0
 22 68  1  0  0  0  0
 22 69  1  0  0  0  0
 23 25  1  0  0  0  0
 23 26  1  0  0  0  0
 23 36  1  0  0  0  0
 23 70  1  0  0  0  0
 24 32  1  0  0  0  0
 25 27  1  0  0  0  0
 25 71  1  0  0  0  0
 25 72  1  0  0  0  0
 26 29  1  0  0  0  0
 26 73  1  0  0  0  0
 26 74  1  0  0  0  0
 27 28  1  0  0  0  0
 27 75  1  0  0  0  0
 28 29  1  0  0  0  0
 28 76  1  0  0  0  0
 29 77  1  0  0  0  0
 29 78  1  0  0  0  0
 30 34  1  0  0  0  0
 30 43  1  0  0  0  0
 30 79  1  0  0  0  0
 31 44  1  0  0  0  0
 31 80  1  0  0  0  0
 31 81  1  0  0  0  0
 33 37  1  0  0  0  0
 33 40  1  0  0  0  0
 33 82  1  0  0  0  0
 34 38  1  0  0  0  0
 34 83  1  0  0  0  0
 34 84  1  0  0  0  0
 35 39  1  0  0  0  0
 35 86  1  0  0  0  0
 35 87  1  0  0  0  0
 36 40  2  3  0  0  0
 36 88  1  0  0  0  0
 37 42  1  0  0  0  0
 37 48  1  0  0  0  0
 37 89  1  0  0  0  0
 38 39  1  0  0  0  0
 38 90  1  0  0  0  0
 38 91  1  0  0  0  0
 39 92  1  0  0  0  0
 39 93  1  0  0  0  0
 40 50  1  0  0  0  0
 41 94  1  0  0  0  0
 41 95  1  0  0  0  0
 41 96  1  0  0  0  0
 42 47  1  0  0  0  0
 42 97  1  0  0  0  0
 44 51  2  3  0  0  0
 44 53  1  0  0  0  0
 45 98  1  0  0  0  0
 45 99  1  0  0  0  0
 45100  1  0  0  0  0
 46103  1  0  0  0  0
 46104  1  0  0  0  0
 46105  1  0  0  0  0
 47 52  1  0  0  0  0
 47101  1  0  0  0  0
 47102  1  0  0  0  0
 48106  1  0  0  0  0
 48107  1  0  0  0  0
 48108  1  0  0  0  0
 49 51  1  0  0  0  0
 49 52  1  0  0  0  0
 49 54  1  0  0  0  0
 49109  1  0  0  0  0
 50110  1  0  0  0  0
 50111  1  0  0  0  0
 50112  1  0  0  0  0
 51113  1  0  0  0  0
 53115  1  0  0  0  0
 53116  1  0  0  0  0
 53117  1  0  0  0  0
 54 56  1  0  0  0  0
 54118  1  0  0  0  0
 54119  1  0  0  0  0
 55120  1  0  0  0  0
 55121  1  0  0  0  0
 55122  1  0  0  0  0
 56 57  2  0  0  0  0
 56124  1  0  0  0  0
 57125  1  0  0  0  0
 57126  1  0  0  0  0
M  END
> <PUBCHEM_COMPOUND_CID>
5372

> <PUBCHEM_COMPOUND_CANONICALIZED>
1

> <PUBCHEM_CACTVS_COMPLEXITY>
1480

> <PUBCHEM_CACTVS_HBOND_ACCEPTOR>
12

> <PUBCHEM_CACTVS_HBOND_DONOR>
3

> <PUBCHEM_CACTVS_ROTATABLE_BOND>
7

> <PUBCHEM_CACTVS_SUBSKEYS>
AAADcfB+PAAAAAAAAAAAAAAAAAAAAAAAAAA8SIAAAAAAAAAAAAAAHgAACAAADTzhgAYCCAMABgCIAqHSGAIAAAAgAAAICAHIAAgTFBYAoSQHUAAHpgCfIAPY7PTOAAAAAAAAAABAAAIAAACAAAAAAAAAAA==

> <PUBCHEM_IUPAC_INCHI>
InChI=1S/C44H69NO12/c1-10-13-31-19-25(2)18-26(3)20-37(54-8)40-38(55-9)22-28(5)44(52,57-40)41(49)42(50)45-17-12-11-14-32(45)43(51)56-39(29(6)34(47)24-35(31)48)27(4)21-30-15-16-33(46)36(23-30)53-7/h10,19,21,26,28-34,36-40,46-47,52H,1,11-18,20,22-24H2,2-9H3

> <PUBCHEM_IUPAC_INCHIKEY>
QJJXYPPXXYFBGM-UHFFFAOYSA-N

> <PUBCHEM_XLOGP3>
2.7

> <PUBCHEM_EXACT_MASS>
803.481977

> <PUBCHEM_MOLECULAR_FORMULA>
C44H69NO12

> <PUBCHEM_MOLECULAR_WEIGHT>
804.01816

> <PUBCHEM_OPENEYE_CAN_SMILES>
CC1CC(C2C(CC(C(O2)(C(=O)C(=O)N3CCCCC3C(=O)OC(C(C(CC(=O)C(C=C(C1)C)CC=C)O)C)C(=CC4CCC(C(C4)OC)O)C)O)C)OC)OC

> <PUBCHEM_OPENEYE_ISO_SMILES>
CC1CC(C2C(CC(C(O2)(C(=O)C(=O)N3CCCCC3C(=O)OC(C(C(CC(=O)C(C=C(C1)C)CC=C)O)C)C(=CC4CCC(C(C4)OC)O)C)O)C)OC)OC

> <PUBCHEM_CACTVS_TPSA>
178

> <PUBCHEM_MONOISOTOPIC_WEIGHT>
803.481977

> <PUBCHEM_TOTAL_CHARGE>
0

> <PUBCHEM_HEAVY_ATOM_COUNT>
57

> <PUBCHEM_ATOM_DEF_STEREO_COUNT>
0

> <PUBCHEM_ATOM_UDEF_STEREO_COUNT>
14

> <PUBCHEM_BOND_DEF_STEREO_COUNT>
0

> <PUBCHEM_BOND_UDEF_STEREO_COUNT>
2

> <PUBCHEM_ISOTOPIC_ATOM_COUNT>
0

> <PUBCHEM_COMPONENT_COUNT>
1

> <PUBCHEM_CACTVS_TAUTO_COUNT>
5

> <PUBCHEM_COORDINATE_TYPE>
1
5
255

> <PUBCHEM_BONDANNOTATIONS>
14  58  3
15  59  3
16  60  3
19  63  3
21  66  3
23  70  3
27  75  3
28  76  3
30  79  3
33  82  3
36  40  1
37  89  3
18  4  3
42  97  3
44  51  1
49  109  3

$$$$
