5381226
  -OEChem-12171208252D

117121  0     1  0  0  0  0  0999 V2000
    7.1311   -3.1996    0.0000 O   0  0  0  0  0  0  0  0  0  0  0  0
    4.9774   -0.8646    0.0000 O   0  0  0  0  0  0  0  0  0  0  0  0
    2.9106   -3.3657    0.0000 O   0  0  0  0  0  0  0  0  0  0  0  0
    8.8592   -3.3171    0.0000 O   0  0  0  0  0  0  0  0  0  0  0  0
   11.2925   -2.0133    0.0000 O   0  0  0  0  0  0  0  0  0  0  0  0
   11.7655   -0.1079    0.0000 O   0  0  0  0  0  0  0  0  0  0  0  0
    5.8260   -4.3383    0.0000 O   0  0  0  0  0  0  0  0  0  0  0  0
   10.6824   -1.8631    0.0000 O   0  0  0  0  0  0  0  0  0  0  0  0
   10.1625    3.0592    0.0000 O   0  0  0  0  0  0  0  0  0  0  0  0
    8.4141    3.0938    0.0000 O   0  0  0  0  0  0  0  0  0  0  0  0
    9.2743   -0.4654    0.0000 O   0  0  0  0  0  0  0  0  0  0  0  0
    6.0575   -0.5878    0.0000 O   0  0  0  0  0  0  0  0  0  0  0  0
    6.1252    1.8992    0.0000 N   0  0  0  0  0  0  0  0  0  0  0  0
    6.1175    3.8991    0.0000 N   0  0  0  0  0  0  0  0  0  0  0  0
    6.1290    0.8992    0.0000 N   0  0  0  0  0  0  0  0  0  0  0  0
    6.5985    1.1400    0.0000 N   0  0  0  0  0  0  0  0  0  0  0  0
    6.1084   -1.6606    0.0000 C   0  0  2  0  0  0  0  0  0  0  0  0
    5.1271   -1.8533    0.0000 C   0  0  1  0  0  0  0  0  0  0  0  0
    6.9385   -2.2183    0.0000 C   0  0  1  0  0  0  0  0  0  0  0  0
    4.5695   -2.6834    0.0000 C   0  0  1  0  0  0  0  0  0  0  0  0
    7.8364   -1.7782    0.0000 C   0  0  1  0  0  0  0  0  0  0  0  0
    3.5718   -2.6155    0.0000 C   0  0  2  0  0  0  0  0  0  0  0  0
    7.0803   -1.4254    0.0000 C   0  0  0  0  0  0  0  0  0  0  0  0
    8.6665   -2.3358    0.0000 C   0  0  2  0  0  0  0  0  0  0  0  0
    2.9143   -1.8621    0.0000 C   0  0  1  0  0  0  0  0  0  0  0  0
    4.4149   -3.6714    0.0000 C   0  0  0  0  0  0  0  0  0  0  0  0
    8.8177   -1.5856    0.0000 C   0  0  0  0  0  0  0  0  0  0  0  0
    2.0000   -1.4570    0.0000 C   0  0  0  0  0  0  0  0  0  0  0  0
    9.5645   -1.8958    0.0000 C   0  0  0  0  0  0  0  0  0  0  0  0
    3.2381   -0.9159    0.0000 C   0  0  0  0  0  0  0  0  0  0  0  0
    6.8073   -4.1457    0.0000 C   0  0  0  0  0  0  0  0  0  0  0  0
   10.3946   -2.4534    0.0000 C   0  0  0  0  0  0  0  0  0  0  0  0
    4.1361   -0.4759    0.0000 C   0  0  0  0  0  0  0  0  0  0  0  0
    9.8053   -3.6409    0.0000 C   0  0  0  0  0  0  0  0  0  0  0  0
   11.3604   -1.0156    0.0000 C   0  0  1  0  0  0  0  0  0  0  0  0
    7.4649   -4.8991    0.0000 C   0  0  0  0  0  0  0  0  0  0  0  0
   10.1625    0.0592    0.0000 C   0  0  0  0  0  0  0  0  0  0  0  0
   10.3717   -0.9126    0.0000 C   0  0  0  0  0  0  0  0  0  0  0  0
   11.0285    0.5592    0.0000 C   0  0  0  0  0  0  0  0  0  0  0  0
    9.2965    0.5592    0.0000 C   0  0  0  0  0  0  0  0  0  0  0  0
    4.2039    0.5218    0.0000 C   0  0  0  0  0  0  0  0  0  0  0  0
   12.3308   -1.2571    0.0000 C   0  0  0  0  0  0  0  0  0  0  0  0
    9.2965    1.5592    0.0000 C   0  0  0  0  0  0  0  0  0  0  0  0
   11.0285    1.5592    0.0000 C   0  0  0  0  0  0  0  0  0  0  0  0
   10.1625    2.0592    0.0000 C   0  0  0  0  0  0  0  0  0  0  0  0
    8.4025    0.0246    0.0000 C   0  0  0  0  0  0  0  0  0  0  0  0
    6.9893    2.4025    0.0000 C   0  0  0  0  0  0  0  0  0  0  0  0
    5.2572    2.3958    0.0000 C   0  0  0  0  0  0  0  0  0  0  0  0
    7.4965    0.5384    0.0000 C   0  0  0  0  0  0  0  0  0  0  0  0
    5.2534    3.3958    0.0000 C   0  0  0  0  0  0  0  0  0  0  0  0
    6.9854    3.4025    0.0000 C   0  0  0  0  0  0  0  0  0  0  0  0
    7.4965    1.5800    0.0000 C   0  0  0  0  0  0  0  0  0  0  0  0
    8.4025    2.0939    0.0000 C   0  0  0  0  0  0  0  0  0  0  0  0
    5.1019    0.9619    0.0000 C   0  0  0  0  0  0  0  0  0  0  0  0
   11.8945    2.0592    0.0000 C   0  0  0  0  0  0  0  0  0  0  0  0
    6.6324    0.0351    0.0000 C   0  0  0  0  0  0  0  0  0  0  0  0
    5.9320    0.4043    0.0000 C   0  0  0  0  0  0  0  0  0  0  0  0
    6.1136    4.8991    0.0000 C   0  0  0  0  0  0  0  0  0  0  0  0
    4.8244    1.9226    0.0000 C   0  0  0  0  0  0  0  0  0  0  0  0
    5.7652   -1.1443    0.0000 H   0  0  0  0  0  0  0  0  0  0  0  0
    4.5193   -1.7308    0.0000 H   0  0  0  0  0  0  0  0  0  0  0  0
    6.4714   -2.6260    0.0000 H   0  0  0  0  0  0  0  0  0  0  0  0
    4.9771   -3.1506    0.0000 H   0  0  0  0  0  0  0  0  0  0  0  0
    7.7170   -1.1698    0.0000 H   0  0  0  0  0  0  0  0  0  0  0  0
    3.6647   -3.2285    0.0000 H   0  0  0  0  0  0  0  0  0  0  0  0
    7.2262   -2.0280    0.0000 H   0  0  0  0  0  0  0  0  0  0  0  0
    7.6829   -1.2795    0.0000 H   0  0  0  0  0  0  0  0  0  0  0  0
    6.9344   -0.8228    0.0000 H   0  0  0  0  0  0  0  0  0  0  0  0
    8.2773   -2.8184    0.0000 H   0  0  0  0  0  0  0  0  0  0  0  0
    2.3576   -2.1349    0.0000 H   0  0  0  0  0  0  0  0  0  0  0  0
    3.8024   -3.5756    0.0000 H   0  0  0  0  0  0  0  0  0  0  0  0
    4.3191   -4.2839    0.0000 H   0  0  0  0  0  0  0  0  0  0  0  0
    5.0275   -3.7672    0.0000 H   0  0  0  0  0  0  0  0  0  0  0  0
    8.9372   -2.1939    0.0000 H   0  0  0  0  0  0  0  0  0  0  0  0
    9.4261   -1.4661    0.0000 H   0  0  0  0  0  0  0  0  0  0  0  0
    8.6982   -0.9772    0.0000 H   0  0  0  0  0  0  0  0  0  0  0  0
    5.4619   -0.4777    0.0000 H   0  0  0  0  0  0  0  0  0  0  0  0
    2.2511   -0.8902    0.0000 H   0  0  0  0  0  0  0  0  0  0  0  0
    1.4331   -1.2059    0.0000 H   0  0  0  0  0  0  0  0  0  0  0  0
    1.7489   -2.0239    0.0000 H   0  0  0  0  0  0  0  0  0  0  0  0
    9.6066   -1.2772    0.0000 H   0  0  0  0  0  0  0  0  0  0  0  0
    2.3028   -3.2433    0.0000 H   0  0  0  0  0  0  0  0  0  0  0  0
    2.7730   -0.5060    0.0000 H   0  0  0  0  0  0  0  0  0  0  0  0
   10.3525   -3.0720    0.0000 H   0  0  0  0  0  0  0  0  0  0  0  0
    4.3081   -1.0715    0.0000 H   0  0  0  0  0  0  0  0  0  0  0  0
    9.6046   -4.2275    0.0000 H   0  0  0  0  0  0  0  0  0  0  0  0
   10.3919   -3.8416    0.0000 H   0  0  0  0  0  0  0  0  0  0  0  0
   10.0061   -3.0543    0.0000 H   0  0  0  0  0  0  0  0  0  0  0  0
    6.9978   -5.3068    0.0000 H   0  0  0  0  0  0  0  0  0  0  0  0
    7.8726   -5.3663    0.0000 H   0  0  0  0  0  0  0  0  0  0  0  0
    7.9320   -4.4915    0.0000 H   0  0  0  0  0  0  0  0  0  0  0  0
    3.6893    0.8676    0.0000 H   0  0  0  0  0  0  0  0  0  0  0  0
   12.1812   -1.8587    0.0000 H   0  0  0  0  0  0  0  0  0  0  0  0
   12.9325   -1.4068    0.0000 H   0  0  0  0  0  0  0  0  0  0  0  0
   12.4805   -0.6554    0.0000 H   0  0  0  0  0  0  0  0  0  0  0  0
    7.2036    1.8207    0.0000 H   0  0  0  0  0  0  0  0  0  0  0  0
    7.5994    2.5125    0.0000 H   0  0  0  0  0  0  0  0  0  0  0  0
    4.6462    2.5011    0.0000 H   0  0  0  0  0  0  0  0  0  0  0  0
    5.0474    1.8124    0.0000 H   0  0  0  0  0  0  0  0  0  0  0  0
    5.0391    3.9776    0.0000 H   0  0  0  0  0  0  0  0  0  0  0  0
    4.6432    3.2858    0.0000 H   0  0  0  0  0  0  0  0  0  0  0  0
    7.5964    3.2972    0.0000 H   0  0  0  0  0  0  0  0  0  0  0  0
    7.1952    3.9859    0.0000 H   0  0  0  0  0  0  0  0  0  0  0  0
    5.6526    1.2959    0.0000 H   0  0  0  0  0  0  0  0  0  0  0  0
    6.9444   -0.5007    0.0000 H   0  0  0  0  0  0  0  0  0  0  0  0
   12.2045    1.5223    0.0000 H   0  0  0  0  0  0  0  0  0  0  0  0
   12.4315    2.3692    0.0000 H   0  0  0  0  0  0  0  0  0  0  0  0
   11.5845    2.5962    0.0000 H   0  0  0  0  0  0  0  0  0  0  0  0
    6.8302    1.7151    0.0000 H   0  0  0  0  0  0  0  0  0  0  0  0
    6.7336    4.9015    0.0000 H   0  0  0  0  0  0  0  0  0  0  0  0
    6.1112    5.5191    0.0000 H   0  0  0  0  0  0  0  0  0  0  0  0
    5.4936    4.8968    0.0000 H   0  0  0  0  0  0  0  0  0  0  0  0
    5.4201    2.0947    0.0000 H   0  0  0  0  0  0  0  0  0  0  0  0
    4.6524    2.5183    0.0000 H   0  0  0  0  0  0  0  0  0  0  0  0
    4.2288    1.7506    0.0000 H   0  0  0  0  0  0  0  0  0  0  0  0
   10.6994    3.3692    0.0000 H   0  0  0  0  0  0  0  0  0  0  0  0
    8.9546    3.3976    0.0000 H   0  0  0  0  0  0  0  0  0  0  0  0
 19  1  1  1  0  0  0
  1 31  1  0  0  0  0
 18  2  1  1  0  0  0
  2 77  1  0  0  0  0
 22  3  1  1  0  0  0
  3 82  1  0  0  0  0
 24  4  1  6  0  0  0
  4 34  1  0  0  0  0
  5 32  1  0  0  0  0
  5 35  1  0  0  0  0
  6 35  1  0  0  0  0
  6 39  1  0  0  0  0
  7 31  2  0  0  0  0
  8 38  2  0  0  0  0
  9 45  1  0  0  0  0
  9116  1  0  0  0  0
 10 53  1  0  0  0  0
 10117  1  0  0  0  0
 11 46  2  0  0  0  0
 12 57  2  0  0  0  0
 13 15  1  0  0  0  0
 13 47  1  0  0  0  0
 13 48  1  0  0  0  0
 14 50  1  0  0  0  0
 14 51  1  0  0  0  0
 14 58  1  0  0  0  0
 15 56  1  0  0  0  0
 15104  1  0  0  0  0
 16 52  1  0  0  0  0
 16 57  1  0  0  0  0
 16109  1  0  0  0  0
 17 18  1  0  0  0  0
 17 19  1  0  0  0  0
 17 23  1  1  0  0  0
 17 60  1  0  0  0  0
 18 20  1  0  0  0  0
 18 61  1  0  0  0  0
 19 21  1  0  0  0  0
 19 62  1  0  0  0  0
 20 22  1  0  0  0  0
 20 26  1  6  0  0  0
 20 63  1  0  0  0  0
 21 24  1  0  0  0  0
 21 27  1  6  0  0  0
 21 64  1  0  0  0  0
 22 25  1  0  0  0  0
 22 65  1  0  0  0  0
 23 66  1  0  0  0  0
 23 67  1  0  0  0  0
 23 68  1  0  0  0  0
 24 29  1  0  0  0  0
 24 69  1  0  0  0  0
 25 28  1  1  0  0  0
 25 30  1  0  0  0  0
 25 70  1  0  0  0  0
 26 71  1  0  0  0  0
 26 72  1  0  0  0  0
 26 73  1  0  0  0  0
 27 74  1  0  0  0  0
 27 75  1  0  0  0  0
 27 76  1  0  0  0  0
 28 78  1  0  0  0  0
 28 79  1  0  0  0  0
 28 80  1  0  0  0  0
 29 32  2  0  0  0  0
 29 81  1  0  0  0  0
 30 33  2  0  0  0  0
 30 83  1  0  0  0  0
 31 36  1  0  0  0  0
 32 84  1  0  0  0  0
 33 41  1  0  0  0  0
 33 85  1  0  0  0  0
 34 86  1  0  0  0  0
 34 87  1  0  0  0  0
 34 88  1  0  0  0  0
 35 38  1  0  0  0  0
 35 42  1  1  0  0  0
 36 89  1  0  0  0  0
 36 90  1  0  0  0  0
 36 91  1  0  0  0  0
 37 38  1  0  0  0  0
 37 39  2  0  0  0  0
 37 40  1  0  0  0  0
 39 44  1  0  0  0  0
 40 43  2  0  0  0  0
 40 46  1  0  0  0  0
 41 54  2  0  0  0  0
 41 92  1  0  0  0  0
 42 93  1  0  0  0  0
 42 94  1  0  0  0  0
 42 95  1  0  0  0  0
 43 45  1  0  0  0  0
 43 53  1  0  0  0  0
 44 45  2  0  0  0  0
 44 55  1  0  0  0  0
 46 49  1  0  0  0  0
 47 51  1  0  0  0  0
 47 96  1  0  0  0  0
 47 97  1  0  0  0  0
 48 50  1  0  0  0  0
 48 98  1  0  0  0  0
 48 99  1  0  0  0  0
 49 52  1  0  0  0  0
 49 56  2  0  0  0  0
 50100  1  0  0  0  0
 50101  1  0  0  0  0
 51102  1  0  0  0  0
 51103  1  0  0  0  0
 52 53  2  0  0  0  0
 54 57  1  0  0  0  0
 54 59  1  0  0  0  0
 55106  1  0  0  0  0
 55107  1  0  0  0  0
 55108  1  0  0  0  0
 56105  1  0  0  0  0
 58110  1  0  0  0  0
 58111  1  0  0  0  0
 58112  1  0  0  0  0
 59113  1  0  0  0  0
 59114  1  0  0  0  0
 59115  1  0  0  0  0
M  END
> <PUBCHEM_COMPOUND_CID>
5381226

> <PUBCHEM_COMPOUND_CANONICALIZED>
1

> <PUBCHEM_CACTVS_COMPLEXITY>
1750

> <PUBCHEM_CACTVS_HBOND_ACCEPTOR>
15

> <PUBCHEM_CACTVS_HBOND_DONOR>
6

> <PUBCHEM_CACTVS_ROTATABLE_BOND>
5

> <PUBCHEM_CACTVS_SUBSKEYS>
AAADcfB/vAAAAAAAAAAAAAAAAAAAASAAAAA8QIAAAAAAAEiBAAAAHgAYCAAADRzhmAYCDoPiBgCIAqXWWAKCCAAkIAAYqIFMCMgcdz6GtR62eWCl5BWMucfb7PzO4AADCAAYAADAAAYQADAAAAAAAAAAAA==

> <PUBCHEM_IUPAC_INCHI>
InChI=1S/C43H58N4O12/c1-21-12-11-13-22(2)42(55)45-33-28(20-44-47-17-15-46(9)16-18-47)37(52)30-31(38(33)53)36(51)26(6)40-32(30)41(54)43(8,59-40)57-19-14-29(56-10)23(3)39(58-27(7)48)25(5)35(50)24(4)34(21)49/h11-14,19-21,23-25,29,34-35,39,44,49-51,53H,15-18H2,1-10H3,(H,45,55)/b12-11+,19-14+,22-13-,28-20+/t21-,23+,24+,25+,29-,34-,35+,39+,43-/m0/s1

> <PUBCHEM_IUPAC_INCHIKEY>
FZYOVNIOYYPUPY-ZTWDQPHTSA-N

> <PUBCHEM_XLOGP3_AA>
4

> <PUBCHEM_EXACT_MASS>
822.405123

> <PUBCHEM_MOLECULAR_FORMULA>
C43H58N4O12

> <PUBCHEM_MOLECULAR_WEIGHT>
822.94022

> <PUBCHEM_OPENEYE_CAN_SMILES>
CC1C=CC=C(C(=O)NC2=C(C3=C(C(=C4C(=C3C(=O)C2=CNN5CCN(CC5)C)C(=O)C(O4)(OC=CC(C(C(C(C(C(C1O)C)O)C)OC(=O)C)C)OC)C)C)O)O)C

> <PUBCHEM_OPENEYE_ISO_SMILES>
C[C@H]1/C=C/C=C(\C(=O)NC\2=C(C3=C(C(=C4C(=C3C(=O)/C2=C/NN5CCN(CC5)C)C(=O)[C@](O4)(O/C=C/[C@@H]([C@H]([C@H]([C@@H]([C@@H]([C@@H]([C@H]1O)C)O)C)OC(=O)C)C)OC)C)C)O)O)/C

> <PUBCHEM_CACTVS_TPSA>
217

> <PUBCHEM_MONOISOTOPIC_WEIGHT>
822.405123

> <PUBCHEM_TOTAL_CHARGE>
0

> <PUBCHEM_HEAVY_ATOM_COUNT>
59

> <PUBCHEM_ATOM_DEF_STEREO_COUNT>
9

> <PUBCHEM_ATOM_UDEF_STEREO_COUNT>
0

> <PUBCHEM_BOND_DEF_STEREO_COUNT>
4

> <PUBCHEM_BOND_UDEF_STEREO_COUNT>
0

> <PUBCHEM_ISOTOPIC_ATOM_COUNT>
0

> <PUBCHEM_COMPONENT_COUNT>
1

> <PUBCHEM_CACTVS_TAUTO_COUNT>
1000

> <PUBCHEM_COORDINATE_TYPE>
1
5
255

> <PUBCHEM_BONDANNOTATIONS>
19  1  5
17  23  5
18  2  5
20  26  6
21  27  6
25  28  5
22  3  5
35  42  5
37  39  8
37  40  8
39  44  8
24  4  6
40  43  8
43  45  8
44  45  8

$$$$
