54374
  -OEChem-12171208192D

137141  0     1  0  0  0  0  0999 V2000
    7.7331   -0.3450    0.0000 S   0  0  0  0  0  0  0  0  0  0  0  0
    8.5991    0.1550    0.0000 S   0  0  0  0  0  0  0  0  0  0  0  0
   11.1972   -1.3450    0.0000 O   0  0  0  0  0  0  0  0  0  0  0  0
   10.3312   -1.8450    0.0000 O   0  0  0  0  0  0  0  0  0  0  0  0
    9.4651   -1.3450    0.0000 O   0  0  0  0  0  0  0  0  0  0  0  0
   11.1972   -0.3450    0.0000 O   0  0  0  0  0  0  0  0  0  0  0  0
    7.7331   -4.3450    0.0000 O   0  0  0  0  0  0  0  0  0  0  0  0
   10.3312    0.1550    0.0000 O   0  0  0  0  0  0  0  0  0  0  0  0
    2.5369   -1.3450    0.0000 O   0  0  0  0  0  0  0  0  0  0  0  0
    6.0010   -0.3450    0.0000 O   0  0  0  0  0  0  0  0  0  0  0  0
    3.4030    0.1550    0.0000 O   0  0  0  0  0  0  0  0  0  0  0  0
    7.7331    2.6550    0.0000 O   0  0  0  0  0  0  0  0  0  0  0  0
   12.0632   -2.8450    0.0000 N   0  0  0  0  0  0  0  0  0  0  0  0
   12.9292   -0.3450    0.0000 N   0  0  0  0  0  0  0  0  0  0  0  0
    9.4651   -3.3450    0.0000 N   0  0  0  0  0  0  0  0  0  0  0  0
   11.1972    1.6550    0.0000 N   0  0  0  0  0  0  0  0  0  0  0  0
   15.7362   -0.1471    0.0000 N   0  0  0  0  0  0  0  0  0  0  0  0
    6.8671   -2.8450    0.0000 N   0  0  0  0  0  0  0  0  0  0  0  0
    5.1350   -1.8450    0.0000 N   0  0  0  0  0  0  0  0  0  0  0  0
    9.4651    2.6550    0.0000 N   0  0  0  0  0  0  0  0  0  0  0  0
   12.9292   -7.3450    0.0000 N   0  0  0  0  0  0  0  0  0  0  0  0
    9.4651    4.6550    0.0000 N   0  0  0  0  0  0  0  0  0  0  0  0
   11.1972   -3.3450    0.0000 C   0  0  3  0  0  0  0  0  0  0  0  0
   12.9292   -1.3450    0.0000 C   0  0  3  0  0  0  0  0  0  0  0  0
   11.1972   -4.3450    0.0000 C   0  0  0  0  0  0  0  0  0  0  0  0
   13.7953   -1.8450    0.0000 C   0  0  0  0  0  0  0  0  0  0  0  0
   12.0632   -4.8450    0.0000 C   0  0  0  0  0  0  0  0  0  0  0  0
   12.0632   -1.8450    0.0000 C   0  0  0  0  0  0  0  0  0  0  0  0
   14.6613   -1.3450    0.0000 C   0  0  0  0  0  0  0  0  0  0  0  0
    8.5991   -2.8450    0.0000 C   0  0  3  0  0  0  0  0  0  0  0  0
   10.3312   -2.8450    0.0000 C   0  0  0  0  0  0  0  0  0  0  0  0
   12.0632    1.1550    0.0000 C   0  0  3  0  0  0  0  0  0  0  0  0
   12.0632   -5.8450    0.0000 C   0  0  0  0  0  0  0  0  0  0  0  0
   15.5691   -1.7501    0.0000 C   0  0  0  0  0  0  0  0  0  0  0  0
    8.5991   -1.8450    0.0000 C   0  0  3  0  0  0  0  0  0  0  0  0
   12.0632    0.1550    0.0000 C   0  0  0  0  0  0  0  0  0  0  0  0
   12.9292    1.6550    0.0000 C   0  0  0  0  0  0  0  0  0  0  0  0
   14.7643   -0.3563    0.0000 C   0  0  0  0  0  0  0  0  0  0  0  0
   16.2369   -1.0058    0.0000 C   0  0  0  0  0  0  0  0  0  0  0  0
    7.7331   -3.3450    0.0000 C   0  0  0  0  0  0  0  0  0  0  0  0
    6.8671   -1.8450    0.0000 C   0  0  3  0  0  0  0  0  0  0  0  0
   12.9292   -6.3450    0.0000 C   0  0  0  0  0  0  0  0  0  0  0  0
    9.4651    1.6550    0.0000 C   0  0  3  0  0  0  0  0  0  0  0  0
   15.8797   -2.7006    0.0000 C   0  0  0  0  0  0  0  0  0  0  0  0
    7.7331   -2.3450    0.0000 C   0  0  0  0  0  0  0  0  0  0  0  0
   10.3312    1.1550    0.0000 C   0  0  0  0  0  0  0  0  0  0  0  0
   12.9292    2.6550    0.0000 C   0  0  0  0  0  0  0  0  0  0  0  0
    4.2690   -1.3450    0.0000 C   0  0  1  0  0  0  0  0  0  0  0  0
    7.7331   -1.3450    0.0000 C   0  0  0  0  0  0  0  0  0  0  0  0
    6.0010   -1.3450    0.0000 C   0  0  0  0  0  0  0  0  0  0  0  0
   17.2154   -1.2120    0.0000 C   0  0  0  0  0  0  0  0  0  0  0  0
    8.5991    1.1550    0.0000 C   0  0  0  0  0  0  0  0  0  0  0  0
    3.4030   -1.8450    0.0000 C   0  0  1  0  0  0  0  0  0  0  0  0
   16.8582   -2.9068    0.0000 C   0  0  0  0  0  0  0  0  0  0  0  0
   17.5261   -2.1626    0.0000 C   0  0  0  0  0  0  0  0  0  0  0  0
    4.2690   -0.3450    0.0000 C   0  0  0  0  0  0  0  0  0  0  0  0
   13.7953    3.1550    0.0000 C   0  0  0  0  0  0  0  0  0  0  0  0
   12.0632    3.1550    0.0000 C   0  0  0  0  0  0  0  0  0  0  0  0
    8.5991    4.1550    0.0000 C   0  0  3  0  0  0  0  0  0  0  0  0
    8.5991    3.1550    0.0000 C   0  0  0  0  0  0  0  0  0  0  0  0
    3.4030   -2.8450    0.0000 C   0  0  0  0  0  0  0  0  0  0  0  0
    7.7331    4.6550    0.0000 C   0  0  0  0  0  0  0  0  0  0  0  0
   13.7953    4.1550    0.0000 C   0  0  0  0  0  0  0  0  0  0  0  0
   12.0632    4.1550    0.0000 C   0  0  0  0  0  0  0  0  0  0  0  0
   12.9292    4.6550    0.0000 C   0  0  0  0  0  0  0  0  0  0  0  0
    7.7331    5.6550    0.0000 C   0  0  0  0  0  0  0  0  0  0  0  0
    8.5991    6.1550    0.0000 C   0  0  0  0  0  0  0  0  0  0  0  0
    6.8671    6.1550    0.0000 C   0  0  0  0  0  0  0  0  0  0  0  0
    8.5991    7.1550    0.0000 C   0  0  0  0  0  0  0  0  0  0  0  0
    6.8671    7.1550    0.0000 C   0  0  0  0  0  0  0  0  0  0  0  0
    7.7331    7.6550    0.0000 C   0  0  0  0  0  0  0  0  0  0  0  0
   11.7341   -3.6550    0.0000 H   0  0  0  0  0  0  0  0  0  0  0  0
   13.4662   -1.0350    0.0000 H   0  0  0  0  0  0  0  0  0  0  0  0
   10.5866   -4.2373    0.0000 H   0  0  0  0  0  0  0  0  0  0  0  0
   10.9851   -4.9276    0.0000 H   0  0  0  0  0  0  0  0  0  0  0  0
   13.3967   -2.3200    0.0000 H   0  0  0  0  0  0  0  0  0  0  0  0
   14.1938   -2.3200    0.0000 H   0  0  0  0  0  0  0  0  0  0  0  0
   12.6738   -4.9527    0.0000 H   0  0  0  0  0  0  0  0  0  0  0  0
   12.2753   -4.2624    0.0000 H   0  0  0  0  0  0  0  0  0  0  0  0
   12.6002   -3.1550    0.0000 H   0  0  0  0  0  0  0  0  0  0  0  0
    9.1360   -2.5350    0.0000 H   0  0  0  0  0  0  0  0  0  0  0  0
   13.4662   -0.0350    0.0000 H   0  0  0  0  0  0  0  0  0  0  0  0
   12.0632    1.7750    0.0000 H   0  0  0  0  0  0  0  0  0  0  0  0
   11.4526   -5.7373    0.0000 H   0  0  0  0  0  0  0  0  0  0  0  0
   11.8512   -6.4276    0.0000 H   0  0  0  0  0  0  0  0  0  0  0  0
    9.4651   -3.9650    0.0000 H   0  0  0  0  0  0  0  0  0  0  0  0
    8.2891   -1.3081    0.0000 H   0  0  0  0  0  0  0  0  0  0  0  0
   13.1413    1.0724    0.0000 H   0  0  0  0  0  0  0  0  0  0  0  0
   13.5398    1.7627    0.0000 H   0  0  0  0  0  0  0  0  0  0  0  0
   14.3029    0.0578    0.0000 H   0  0  0  0  0  0  0  0  0  0  0  0
    6.3301   -2.1550    0.0000 H   0  0  0  0  0  0  0  0  0  0  0  0
   13.5398   -6.4527    0.0000 H   0  0  0  0  0  0  0  0  0  0  0  0
   13.1413   -5.7624    0.0000 H   0  0  0  0  0  0  0  0  0  0  0  0
   11.1972    2.2750    0.0000 H   0  0  0  0  0  0  0  0  0  0  0  0
   15.9864    0.4202    0.0000 H   0  0  0  0  0  0  0  0  0  0  0  0
    6.3301   -3.1550    0.0000 H   0  0  0  0  0  0  0  0  0  0  0  0
   10.0021    1.9650    0.0000 H   0  0  0  0  0  0  0  0  0  0  0  0
   15.4657   -3.1621    0.0000 H   0  0  0  0  0  0  0  0  0  0  0  0
    7.4231   -1.8081    0.0000 H   0  0  0  0  0  0  0  0  0  0  0  0
    7.1962   -2.6550    0.0000 H   0  0  0  0  0  0  0  0  0  0  0  0
    8.0431   -2.8819    0.0000 H   0  0  0  0  0  0  0  0  0  0  0  0
    4.2690   -1.9650    0.0000 H   0  0  0  0  0  0  0  0  0  0  0  0
    7.9451   -1.9276    0.0000 H   0  0  0  0  0  0  0  0  0  0  0  0
    8.3437   -1.2373    0.0000 H   0  0  0  0  0  0  0  0  0  0  0  0
   17.6295   -0.7506    0.0000 H   0  0  0  0  0  0  0  0  0  0  0  0
    8.3871    1.7376    0.0000 H   0  0  0  0  0  0  0  0  0  0  0  0
    7.9885    1.0473    0.0000 H   0  0  0  0  0  0  0  0  0  0  0  0
    5.1350   -2.4650    0.0000 H   0  0  0  0  0  0  0  0  0  0  0  0
    3.4030   -1.2250    0.0000 H   0  0  0  0  0  0  0  0  0  0  0  0
   17.0509   -3.4962    0.0000 H   0  0  0  0  0  0  0  0  0  0  0  0
   10.0021    2.9650    0.0000 H   0  0  0  0  0  0  0  0  0  0  0  0
   18.1328   -2.2904    0.0000 H   0  0  0  0  0  0  0  0  0  0  0  0
    9.4651   -0.7250    0.0000 H   0  0  0  0  0  0  0  0  0  0  0  0
    4.8796   -0.4527    0.0000 H   0  0  0  0  0  0  0  0  0  0  0  0
    4.4810    0.2376    0.0000 H   0  0  0  0  0  0  0  0  0  0  0  0
   13.4662   -7.6550    0.0000 H   0  0  0  0  0  0  0  0  0  0  0  0
   12.3923   -7.6550    0.0000 H   0  0  0  0  0  0  0  0  0  0  0  0
   14.3322    2.8450    0.0000 H   0  0  0  0  0  0  0  0  0  0  0  0
   11.5263    2.8450    0.0000 H   0  0  0  0  0  0  0  0  0  0  0  0
    8.5991    4.7750    0.0000 H   0  0  0  0  0  0  0  0  0  0  0  0
    2.7830   -2.8450    0.0000 H   0  0  0  0  0  0  0  0  0  0  0  0
    3.4030   -3.4650    0.0000 H   0  0  0  0  0  0  0  0  0  0  0  0
    4.0230   -2.8450    0.0000 H   0  0  0  0  0  0  0  0  0  0  0  0
    7.1225    4.7627    0.0000 H   0  0  0  0  0  0  0  0  0  0  0  0
    7.5210    4.0724    0.0000 H   0  0  0  0  0  0  0  0  0  0  0  0
   14.3322    4.4650    0.0000 H   0  0  0  0  0  0  0  0  0  0  0  0
   11.5263    4.4650    0.0000 H   0  0  0  0  0  0  0  0  0  0  0  0
   12.9292    5.2750    0.0000 H   0  0  0  0  0  0  0  0  0  0  0  0
    2.0000   -1.6550    0.0000 H   0  0  0  0  0  0  0  0  0  0  0  0
    9.4651    5.2750    0.0000 H   0  0  0  0  0  0  0  0  0  0  0  0
   10.0021    4.3450    0.0000 H   0  0  0  0  0  0  0  0  0  0  0  0
    3.4030    0.7750    0.0000 H   0  0  0  0  0  0  0  0  0  0  0  0
    9.1360    5.8450    0.0000 H   0  0  0  0  0  0  0  0  0  0  0  0
    6.3301    5.8450    0.0000 H   0  0  0  0  0  0  0  0  0  0  0  0
    9.1360    7.4650    0.0000 H   0  0  0  0  0  0  0  0  0  0  0  0
    6.3301    7.4650    0.0000 H   0  0  0  0  0  0  0  0  0  0  0  0
    7.7331    8.2750    0.0000 H   0  0  0  0  0  0  0  0  0  0  0  0
  1  2  1  0  0  0  0
  1 49  1  0  0  0  0
  2 52  1  0  0  0  0
  3 28  2  0  0  0  0
  4 31  2  0  0  0  0
  5 35  1  0  0  0  0
  5113  1  0  0  0  0
  6 36  2  0  0  0  0
  7 40  2  0  0  0  0
  8 46  2  0  0  0  0
 53  9  1  1  0  0  0
  9129  1  0  0  0  0
 10 50  2  0  0  0  0
 11 56  1  0  0  0  0
 11132  1  0  0  0  0
 12 60  2  0  0  0  0
 13 23  1  0  0  0  0
 13 28  1  0  0  0  0
 13 80  1  0  0  0  0
 14 24  1  0  0  0  0
 14 36  1  0  0  0  0
 14 82  1  0  0  0  0
 15 30  1  0  0  0  0
 15 31  1  0  0  0  0
 15 86  1  0  0  0  0
 16 32  1  0  0  0  0
 16 46  1  0  0  0  0
 16 94  1  0  0  0  0
 17 38  1  0  0  0  0
 17 39  1  0  0  0  0
 17 95  1  0  0  0  0
 18 40  1  0  0  0  0
 18 41  1  0  0  0  0
 18 96  1  0  0  0  0
 48 19  1  1  0  0  0
 19 50  1  0  0  0  0
 19108  1  0  0  0  0
 20 43  1  0  0  0  0
 20 60  1  0  0  0  0
 20111  1  0  0  0  0
 21 42  1  0  0  0  0
 21116  1  0  0  0  0
 21117  1  0  0  0  0
 22 59  1  0  0  0  0
 22130  1  0  0  0  0
 22131  1  0  0  0  0
 23 25  1  0  0  0  0
 23 31  1  0  0  0  0
 23 72  1  0  0  0  0
 24 26  1  0  0  0  0
 24 28  1  0  0  0  0
 24 73  1  0  0  0  0
 25 27  1  0  0  0  0
 25 74  1  0  0  0  0
 25 75  1  0  0  0  0
 26 29  1  0  0  0  0
 26 76  1  0  0  0  0
 26 77  1  0  0  0  0
 27 33  1  0  0  0  0
 27 78  1  0  0  0  0
 27 79  1  0  0  0  0
 29 34  1  0  0  0  0
 29 38  2  0  0  0  0
 30 35  1  0  0  0  0
 30 40  1  0  0  0  0
 30 81  1  0  0  0  0
 32 36  1  0  0  0  0
 32 37  1  0  0  0  0
 32 83  1  0  0  0  0
 33 42  1  0  0  0  0
 33 84  1  0  0  0  0
 33 85  1  0  0  0  0
 34 39  1  0  0  0  0
 34 44  2  0  0  0  0
 35 45  1  0  0  0  0
 35 87  1  0  0  0  0
 37 47  1  0  0  0  0
 37 88  1  0  0  0  0
 37 89  1  0  0  0  0
 38 90  1  0  0  0  0
 39 51  2  0  0  0  0
 41 49  1  0  0  0  0
 41 50  1  0  0  0  0
 41 91  1  0  0  0  0
 42 92  1  0  0  0  0
 42 93  1  0  0  0  0
 43 46  1  0  0  0  0
 43 52  1  0  0  0  0
 43 97  1  0  0  0  0
 44 54  1  0  0  0  0
 44 98  1  0  0  0  0
 45 99  1  0  0  0  0
 45100  1  0  0  0  0
 45101  1  0  0  0  0
 47 57  2  0  0  0  0
 47 58  1  0  0  0  0
 48 53  1  0  0  0  0
 48 56  1  0  0  0  0
 48102  1  0  0  0  0
 49103  1  0  0  0  0
 49104  1  0  0  0  0
 51 55  1  0  0  0  0
 51105  1  0  0  0  0
 52106  1  0  0  0  0
 52107  1  0  0  0  0
 53 61  1  0  0  0  0
 53109  1  0  0  0  0
 54 55  2  0  0  0  0
 54110  1  0  0  0  0
 55112  1  0  0  0  0
 56114  1  0  0  0  0
 56115  1  0  0  0  0
 57 63  1  0  0  0  0
 57118  1  0  0  0  0
 58 64  2  0  0  0  0
 58119  1  0  0  0  0
 59 60  1  0  0  0  0
 59 62  1  0  0  0  0
 59120  1  0  0  0  0
 61121  1  0  0  0  0
 61122  1  0  0  0  0
 61123  1  0  0  0  0
 62 66  1  0  0  0  0
 62124  1  0  0  0  0
 62125  1  0  0  0  0
 63 65  2  0  0  0  0
 63126  1  0  0  0  0
 64 65  1  0  0  0  0
 64127  1  0  0  0  0
 65128  1  0  0  0  0
 66 67  2  0  0  0  0
 66 68  1  0  0  0  0
 67 69  1  0  0  0  0
 67133  1  0  0  0  0
 68 70  2  0  0  0  0
 68134  1  0  0  0  0
 69 71  2  0  0  0  0
 69135  1  0  0  0  0
 70 71  1  0  0  0  0
 70136  1  0  0  0  0
 71137  1  0  0  0  0
M  END
> <PUBCHEM_COMPOUND_CID>
54374

> <PUBCHEM_COMPOUND_CANONICALIZED>
1

> <PUBCHEM_CACTVS_COMPLEXITY>
1740

> <PUBCHEM_CACTVS_HBOND_ACCEPTOR>
14

> <PUBCHEM_CACTVS_HBOND_DONOR>
13

> <PUBCHEM_CACTVS_ROTATABLE_BOND>
17

> <PUBCHEM_CACTVS_SUBSKEYS>
AAADcfB//ABgAAAAAAAAAAAAAAAAAWAAAAAwYMAAAAAAAFgB9AAAHgQQCAAADDzl3ga+wPLJkgCoAzV3VACCgCAxAiAI2aG4ZJgKcPbAkbGUYAhntgDYyAcYicCOgAAAAAACAAAAAAAAAAQAAAAAAAAAAA==

> <PUBCHEM_IUPAC_OPENEYE_NAME>
10-(4-aminobutyl)-19-[(2-amino-3-phenyl-propanoyl)amino]-16-benzyl-7-(1-hydroxyethyl)-N-[(1R,2R)-2-hydroxy-1-(hydroxymethyl)propyl]-13-(1H-indol-3-ylmethyl)-6,9,12,15,18-pentaoxo-1,2-dithia-5,8,11,14,17-pentazacycloicosane-4-carboxamide

> <PUBCHEM_IUPAC_CAS_NAME>
10-(4-aminobutyl)-19-[(2-amino-1-oxo-3-phenylpropyl)amino]-N-[(2R,3R)-1,3-dihydroxybutan-2-yl]-7-(1-hydroxyethyl)-13-(1H-indol-3-ylmethyl)-6,9,12,15,18-pentaoxo-16-(phenylmethyl)-1,2-dithia-5,8,11,14,17-pentazacycloeicosane-4-carboxamide

> <PUBCHEM_IUPAC_NAME>
10-(4-aminobutyl)-19-[(2-amino-3-phenylpropanoyl)amino]-16-benzyl-N-[(2R,3R)-1,3-dihydroxybutan-2-yl]-7-(1-hydroxyethyl)-13-(1H-indol-3-ylmethyl)-6,9,12,15,18-pentaoxo-1,2-dithia-5,8,11,14,17-pentazacycloicosane-4-carboxamide

> <PUBCHEM_IUPAC_SYSTEMATIC_NAME>
10-(4-azanylbutyl)-19-[(2-azanyl-3-phenyl-propanoyl)amino]-N-[(2R,3R)-1,3-bis(oxidanyl)butan-2-yl]-7-(1-hydroxyethyl)-13-(1H-indol-3-ylmethyl)-6,9,12,15,18-pentakis(oxidanylidene)-16-(phenylmethyl)-1,2-dithia-5,8,11,14,17-pentazacycloicosane-4-carboxamide

> <PUBCHEM_IUPAC_TRADITIONAL_NAME>
10-(4-aminobutyl)-16-benzyl-7-(1-hydroxyethyl)-N-[(1R,2R)-2-hydroxy-1-methylol-propyl]-13-(1H-indol-3-ylmethyl)-6,9,12,15,18-pentaketo-19-(phenylalanylamino)-1,2-dithia-5,8,11,14,17-pentazacycloeicosane-4-carboxamide

> <PUBCHEM_IUPAC_INCHI>
InChI=1S/C49H66N10O10S2/c1-28(61)39(25-60)56-48(68)41-27-71-70-26-40(57-43(63)34(51)21-30-13-5-3-6-14-30)47(67)54-37(22-31-15-7-4-8-16-31)45(65)55-38(23-32-24-52-35-18-10-9-17-33(32)35)46(66)53-36(19-11-12-20-50)44(64)59-42(29(2)62)49(69)58-41/h3-10,13-18,24,28-29,34,36-42,52,60-62H,11-12,19-23,25-27,50-51H2,1-2H3,(H,53,66)(H,54,67)(H,55,65)(H,56,68)(H,57,63)(H,58,69)(H,59,64)/t28-,29?,34?,36?,37?,38?,39-,40?,41?,42?/m1/s1

> <PUBCHEM_IUPAC_INCHIKEY>
DEQANNDTNATYII-OLNBODJMSA-N

> <PUBCHEM_XLOGP3_AA>
1

> <PUBCHEM_EXACT_MASS>
1018.44048

> <PUBCHEM_MOLECULAR_FORMULA>
C49H66N10O10S2

> <PUBCHEM_MOLECULAR_WEIGHT>
1019.23934

> <PUBCHEM_OPENEYE_CAN_SMILES>
CC(C1C(=O)NC(CSSCC(C(=O)NC(C(=O)NC(C(=O)NC(C(=O)N1)CCCCN)CC2=CNC3=CC=CC=C32)CC4=CC=CC=C4)NC(=O)C(CC5=CC=CC=C5)N)C(=O)NC(CO)C(C)O)O

> <PUBCHEM_OPENEYE_ISO_SMILES>
C[C@H]([C@@H](CO)NC(=O)C1CSSCC(C(=O)NC(C(=O)NC(C(=O)NC(C(=O)NC(C(=O)N1)C(C)O)CCCCN)CC2=CNC3=CC=CC=C32)CC4=CC=CC=C4)NC(=O)C(CC5=CC=CC=C5)N)O

> <PUBCHEM_CACTVS_TPSA>
383

> <PUBCHEM_MONOISOTOPIC_WEIGHT>
1018.44048

> <PUBCHEM_TOTAL_CHARGE>
0

> <PUBCHEM_HEAVY_ATOM_COUNT>
71

> <PUBCHEM_ATOM_DEF_STEREO_COUNT>
2

> <PUBCHEM_ATOM_UDEF_STEREO_COUNT>
8

> <PUBCHEM_BOND_DEF_STEREO_COUNT>
0

> <PUBCHEM_BOND_UDEF_STEREO_COUNT>
0

> <PUBCHEM_ISOTOPIC_ATOM_COUNT>
0

> <PUBCHEM_COMPONENT_COUNT>
1

> <PUBCHEM_CACTVS_TAUTO_COUNT>
972

> <PUBCHEM_COORDINATE_TYPE>
1
5
255

> <PUBCHEM_BONDANNOTATIONS>
17  38  8
17  39  8
48  19  5
43  20  3
59  22  3
23  25  3
24  26  3
29  34  8
29  38  8
30  40  3
32  37  3
34  39  8
34  44  8
39  51  8
41  50  3
44  54  8
47  57  8
47  58  8
35  5  3
51  55  8
54  55  8
57  63  8
58  64  8
63  65  8
64  65  8
66  67  8
66  68  8
67  69  8
68  70  8
69  71  8
70  71  8
53  9  5

$$$$
