5481350
  -OEChem-12171208262D

 65 66  0     1  0  0  0  0  0999 V2000
    7.5673   -0.9790    0.0000 P   0  0  0  0  0  0  0  0  0  0  0  0
    6.2781    0.1777    0.0000 O   0  0  0  0  0  0  0  0  0  0  0  0
    7.8779   -1.9295    0.0000 O   0  0  0  0  0  0  0  0  0  0  0  0
    8.5178   -0.6683    0.0000 O   0  0  0  0  0  0  0  0  0  0  0  0
    6.6168   -1.2897    0.0000 O   0  0  0  0  0  0  0  0  0  0  0  0
    9.1671   -3.0863    0.0000 O   0  0  0  0  0  0  0  0  0  0  0  0
    9.6745    0.6208    0.0000 O   0  0  0  0  0  0  0  0  0  0  0  0
   10.4563   -4.2430    0.0000 O   0  0  0  0  0  0  0  0  0  0  0  0
   10.8313    1.9100    0.0000 O   0  0  0  0  0  0  0  0  0  0  0  0
   10.8134   -2.5482    0.0000 O   0  0  0  0  0  0  0  0  0  0  0  0
    9.1364    2.2672    0.0000 O   0  0  0  0  0  0  0  0  0  0  0  0
    4.6783    2.2850    0.0000 N   0  0  0  0  0  0  0  0  0  0  0  0
    4.6783    3.8945    0.0000 N   0  0  0  0  0  0  0  0  0  0  0  0
    2.8660    2.0897    0.0000 N   0  0  0  0  0  0  0  0  0  0  0  0
    2.0000    3.5897    0.0000 N   0  0  0  0  0  0  0  0  0  0  0  0
    2.8660    5.0897    0.0000 N   0  0  0  0  0  0  0  0  0  0  0  0
    5.9674    1.1283    0.0000 C   0  0  1  0  0  0  0  0  0  0  0  0
    4.9889    1.3345    0.0000 C   0  0  0  0  0  0  0  0  0  0  0  0
    6.6353    1.8726    0.0000 C   0  0  0  0  0  0  0  0  0  0  0  0
    3.7320    2.5897    0.0000 C   0  0  0  0  0  0  0  0  0  0  0  0
    7.2566   -0.0285    0.0000 C   0  0  0  0  0  0  0  0  0  0  0  0
    5.2619    3.0897    0.0000 C   0  0  0  0  0  0  0  0  0  0  0  0
    3.7320    3.5897    0.0000 C   0  0  0  0  0  0  0  0  0  0  0  0
    2.8660    4.0897    0.0000 C   0  0  0  0  0  0  0  0  0  0  0  0
    2.0000    2.5897    0.0000 C   0  0  0  0  0  0  0  0  0  0  0  0
    8.8564   -2.1357    0.0000 C   0  0  0  0  0  0  0  0  0  0  0  0
    8.7240    0.3102    0.0000 C   0  0  0  0  0  0  0  0  0  0  0  0
   11.4348   -4.4492    0.0000 C   0  0  0  0  0  0  0  0  0  0  0  0
   11.0375    2.8885    0.0000 C   0  0  0  0  0  0  0  0  0  0  0  0
   10.1456   -3.2925    0.0000 C   0  0  0  0  0  0  0  0  0  0  0  0
    9.8808    1.5993    0.0000 C   0  0  0  0  0  0  0  0  0  0  0  0
   11.7454   -5.3997    0.0000 C   0  0  0  0  0  0  0  0  0  0  0  0
   12.1026   -3.7049    0.0000 C   0  0  0  0  0  0  0  0  0  0  0  0
   11.9880    3.1992    0.0000 C   0  0  0  0  0  0  0  0  0  0  0  0
   10.2932    3.5564    0.0000 C   0  0  0  0  0  0  0  0  0  0  0  0
    5.5534    0.6668    0.0000 H   0  0  0  0  0  0  0  0  0  0  0  0
    4.3751    1.2471    0.0000 H   0  0  0  0  0  0  0  0  0  0  0  0
    4.9684    0.7148    0.0000 H   0  0  0  0  0  0  0  0  0  0  0  0
    7.0968    1.4585    0.0000 H   0  0  0  0  0  0  0  0  0  0  0  0
    7.0494    2.3340    0.0000 H   0  0  0  0  0  0  0  0  0  0  0  0
    6.1738    2.2866    0.0000 H   0  0  0  0  0  0  0  0  0  0  0  0
    7.8704    0.0589    0.0000 H   0  0  0  0  0  0  0  0  0  0  0  0
    7.2772    0.5912    0.0000 H   0  0  0  0  0  0  0  0  0  0  0  0
    5.8819    3.0897    0.0000 H   0  0  0  0  0  0  0  0  0  0  0  0
    1.4631    2.2797    0.0000 H   0  0  0  0  0  0  0  0  0  0  0  0
    9.4702   -2.0484    0.0000 H   0  0  0  0  0  0  0  0  0  0  0  0
    8.8770   -1.5161    0.0000 H   0  0  0  0  0  0  0  0  0  0  0  0
    8.6367    0.9240    0.0000 H   0  0  0  0  0  0  0  0  0  0  0  0
    8.1044    0.3307    0.0000 H   0  0  0  0  0  0  0  0  0  0  0  0
    2.3291    5.3997    0.0000 H   0  0  0  0  0  0  0  0  0  0  0  0
    3.4030    5.3997    0.0000 H   0  0  0  0  0  0  0  0  0  0  0  0
   11.0207   -4.9107    0.0000 H   0  0  0  0  0  0  0  0  0  0  0  0
   11.4990    2.4744    0.0000 H   0  0  0  0  0  0  0  0  0  0  0  0
   11.1561   -5.5923    0.0000 H   0  0  0  0  0  0  0  0  0  0  0  0
   11.9380   -5.9891    0.0000 H   0  0  0  0  0  0  0  0  0  0  0  0
   12.3348   -5.2071    0.0000 H   0  0  0  0  0  0  0  0  0  0  0  0
   12.5641   -4.1190    0.0000 H   0  0  0  0  0  0  0  0  0  0  0  0
   12.5167   -3.2434    0.0000 H   0  0  0  0  0  0  0  0  0  0  0  0
   11.6411   -3.2908    0.0000 H   0  0  0  0  0  0  0  0  0  0  0  0
   12.1806    2.6098    0.0000 H   0  0  0  0  0  0  0  0  0  0  0  0
   12.5773    3.3918    0.0000 H   0  0  0  0  0  0  0  0  0  0  0  0
   11.7954    3.7885    0.0000 H   0  0  0  0  0  0  0  0  0  0  0  0
   10.7072    4.0178    0.0000 H   0  0  0  0  0  0  0  0  0  0  0  0
    9.8317    3.9704    0.0000 H   0  0  0  0  0  0  0  0  0  0  0  0
    9.8791    3.0949    0.0000 H   0  0  0  0  0  0  0  0  0  0  0  0
  1  3  1  0  0  0  0
  1  4  1  0  0  0  0
  1  5  2  0  0  0  0
  1 21  1  0  0  0  0
 17  2  1  1  0  0  0
  2 21  1  0  0  0  0
  3 26  1  0  0  0  0
  4 27  1  0  0  0  0
  6 26  1  0  0  0  0
  6 30  1  0  0  0  0
  7 27  1  0  0  0  0
  7 31  1  0  0  0  0
  8 28  1  0  0  0  0
  8 30  1  0  0  0  0
  9 29  1  0  0  0  0
  9 31  1  0  0  0  0
 10 30  2  0  0  0  0
 11 31  2  0  0  0  0
 12 18  1  0  0  0  0
 12 20  1  0  0  0  0
 12 22  1  0  0  0  0
 13 22  2  0  0  0  0
 13 23  1  0  0  0  0
 14 20  1  0  0  0  0
 14 25  2  0  0  0  0
 15 24  2  0  0  0  0
 15 25  1  0  0  0  0
 16 24  1  0  0  0  0
 16 50  1  0  0  0  0
 16 51  1  0  0  0  0
 17 18  1  0  0  0  0
 17 19  1  0  0  0  0
 17 36  1  0  0  0  0
 18 37  1  0  0  0  0
 18 38  1  0  0  0  0
 19 39  1  0  0  0  0
 19 40  1  0  0  0  0
 19 41  1  0  0  0  0
 20 23  2  0  0  0  0
 21 42  1  0  0  0  0
 21 43  1  0  0  0  0
 22 44  1  0  0  0  0
 23 24  1  0  0  0  0
 25 45  1  0  0  0  0
 26 46  1  0  0  0  0
 26 47  1  0  0  0  0
 27 48  1  0  0  0  0
 27 49  1  0  0  0  0
 28 32  1  0  0  0  0
 28 33  1  0  0  0  0
 28 52  1  0  0  0  0
 29 34  1  0  0  0  0
 29 35  1  0  0  0  0
 29 53  1  0  0  0  0
 32 54  1  0  0  0  0
 32 55  1  0  0  0  0
 32 56  1  0  0  0  0
 33 57  1  0  0  0  0
 33 58  1  0  0  0  0
 33 59  1  0  0  0  0
 34 60  1  0  0  0  0
 34 61  1  0  0  0  0
 34 62  1  0  0  0  0
 35 63  1  0  0  0  0
 35 64  1  0  0  0  0
 35 65  1  0  0  0  0
M  END
> <PUBCHEM_COMPOUND_CID>
5481350

> <PUBCHEM_COMPOUND_CANONICALIZED>
1

> <PUBCHEM_CACTVS_COMPLEXITY>
698

> <PUBCHEM_CACTVS_HBOND_ACCEPTOR>
14

> <PUBCHEM_CACTVS_HBOND_DONOR>
1

> <PUBCHEM_CACTVS_ROTATABLE_BOND>
17

> <PUBCHEM_CACTVS_SUBSKEYS>
AAADceB7vAIAAAAAAAAAAAAAAAAAAWAAAAAsAAAAAAAAAFgB+AAAHggQACAACBzhlwcH+L9MFRCoQQZhbICAgC0REKABUCAoVBCSSABASEA1BAgIAALUACAAAAAAAAAAAAAAAAAAAAAAAAAAAAAAAAAAAA==

> <PUBCHEM_IUPAC_OPENEYE_NAME>
[[(1R)-2-(6-aminopurin-9-yl)-1-methyl-ethoxy]methyl-(isopropoxycarbonyloxymethoxy)phosphoryl]oxymethyl isopropyl carbonate

> <PUBCHEM_IUPAC_CAS_NAME>
carbonic acid [[(2R)-1-(6-aminopurin-9-yl)propan-2-yl]oxymethyl-[[oxo(propan-2-yloxy)methoxy]methoxy]phosphoryl]oxymethyl propan-2-yl ester

> <PUBCHEM_IUPAC_NAME>
[[(2R)-1-(6-aminopurin-9-yl)propan-2-yl]oxymethyl-(propan-2-yloxycarbonyloxymethoxy)phosphoryl]oxymethyl propan-2-yl carbonate

> <PUBCHEM_IUPAC_SYSTEMATIC_NAME>
[[(2R)-1-(6-aminopurin-9-yl)propan-2-yl]oxymethyl-(propan-2-yloxycarbonyloxymethoxy)phosphoryl]oxymethyl propan-2-yl carbonate

> <PUBCHEM_IUPAC_TRADITIONAL_NAME>
carbonic acid [[(1R)-2-adenin-9-yl-1-methyl-ethoxy]methyl-(isopropoxycarbonyloxymethoxy)phosphoryl]oxymethyl isopropyl ester

> <PUBCHEM_IUPAC_INCHI>
InChI=1S/C19H30N5O10P/c1-12(2)33-18(25)28-9-31-35(27,32-10-29-19(26)34-13(3)4)11-30-14(5)6-24-8-23-15-16(20)21-7-22-17(15)24/h7-8,12-14H,6,9-11H2,1-5H3,(H2,20,21,22)/t14-/m1/s1

> <PUBCHEM_IUPAC_INCHIKEY>
JFVZFKDSXNQEJW-CQSZACIVSA-N

> <PUBCHEM_XLOGP3_AA>
1.6

> <PUBCHEM_EXACT_MASS>
519.173029

> <PUBCHEM_MOLECULAR_FORMULA>
C19H30N5O10P

> <PUBCHEM_MOLECULAR_WEIGHT>
519.442762

> <PUBCHEM_OPENEYE_CAN_SMILES>
CC(C)OC(=O)OCOP(=O)(COC(C)CN1C=NC2=C1N=CN=C2N)OCOC(=O)OC(C)C

> <PUBCHEM_OPENEYE_ISO_SMILES>
C[C@H](CN1C=NC2=C1N=CN=C2N)OCP(=O)(OCOC(=O)OC(C)C)OCOC(=O)OC(C)C

> <PUBCHEM_CACTVS_TPSA>
185

> <PUBCHEM_MONOISOTOPIC_WEIGHT>
519.173029

> <PUBCHEM_TOTAL_CHARGE>
0

> <PUBCHEM_HEAVY_ATOM_COUNT>
35

> <PUBCHEM_ATOM_DEF_STEREO_COUNT>
1

> <PUBCHEM_ATOM_UDEF_STEREO_COUNT>
0

> <PUBCHEM_BOND_DEF_STEREO_COUNT>
0

> <PUBCHEM_BOND_UDEF_STEREO_COUNT>
0

> <PUBCHEM_ISOTOPIC_ATOM_COUNT>
0

> <PUBCHEM_COMPONENT_COUNT>
1

> <PUBCHEM_CACTVS_TAUTO_COUNT>
3

> <PUBCHEM_COORDINATE_TYPE>
1
5
255

> <PUBCHEM_BONDANNOTATIONS>
12  20  8
12  22  8
13  22  8
13  23  8
14  20  8
14  25  8
15  24  8
15  25  8
17  2  5
20  23  8
23  24  8

$$$$
