5591
  -OEChem-12171208152D

 58 61  0     1  0  0  0  0  0999 V2000
   12.5384    1.2210    0.0000 S   0  0  0  0  0  0  0  0  0  0  0  0
    6.0290   -1.9168    0.0000 O   0  0  0  0  0  0  0  0  0  0  0  0
    8.4384   -0.5428    0.0000 O   0  0  0  0  0  0  0  0  0  0  0  0
    2.5369    0.1178    0.0000 O   0  0  0  0  0  0  0  0  0  0  0  0
   14.6028   -0.3391    0.0000 O   0  0  0  0  0  0  0  0  0  0  0  0
   13.1835    2.8822    0.0000 O   0  0  0  0  0  0  0  0  0  0  0  0
   14.1483    1.3839    0.0000 N   0  0  0  0  0  0  0  0  0  0  0  0
    6.9350   -1.4030    0.0000 C   0  0  3  0  0  0  0  0  0  0  0  0
    6.9350   -0.3614    0.0000 C   0  0  0  0  0  0  0  0  0  0  0  0
    6.0290    0.1525    0.0000 C   0  0  0  0  0  0  0  0  0  0  0  0
    5.1350   -0.3822    0.0000 C   0  0  0  0  0  0  0  0  0  0  0  0
    5.1350   -1.3822    0.0000 C   0  0  0  0  0  0  0  0  0  0  0  0
    7.9350   -1.4069    0.0000 C   0  0  0  0  0  0  0  0  0  0  0  0
    7.4317   -2.2710    0.0000 C   0  0  0  0  0  0  0  0  0  0  0  0
    4.2690    0.1178    0.0000 C   0  0  0  0  0  0  0  0  0  0  0  0
    4.2690   -1.8822    0.0000 C   0  0  0  0  0  0  0  0  0  0  0  0
    3.4030   -1.3822    0.0000 C   0  0  0  0  0  0  0  0  0  0  0  0
    3.4030   -0.3822    0.0000 C   0  0  0  0  0  0  0  0  0  0  0  0
    4.2690    1.1178    0.0000 C   0  0  0  0  0  0  0  0  0  0  0  0
    4.2690   -2.8822    0.0000 C   0  0  0  0  0  0  0  0  0  0  0  0
    2.5369   -1.8822    0.0000 C   0  0  0  0  0  0  0  0  0  0  0  0
    9.4383   -0.5466    0.0000 C   0  0  0  0  0  0  0  0  0  0  0  0
   11.4383   -0.5543    0.0000 C   0  0  0  0  0  0  0  0  0  0  0  0
    9.9350   -1.4146    0.0000 C   0  0  0  0  0  0  0  0  0  0  0  0
    9.9417    0.3175    0.0000 C   0  0  0  0  0  0  0  0  0  0  0  0
   12.4383   -0.5582    0.0000 C   0  0  0  0  0  0  0  0  0  0  0  0
   12.9417    0.3059    0.0000 C   0  0  3  0  0  0  0  0  0  0  0  0
   10.9350   -1.4184    0.0000 C   0  0  0  0  0  0  0  0  0  0  0  0
   10.9417    0.3136    0.0000 C   0  0  0  0  0  0  0  0  0  0  0  0
   13.9366    0.4066    0.0000 C   0  0  0  0  0  0  0  0  0  0  0  0
   13.2842    1.8873    0.0000 C   0  0  0  0  0  0  0  0  0  0  0  0
    7.5459   -0.4675    0.0000 H   0  0  0  0  0  0  0  0  0  0  0  0
    7.1441    0.2223    0.0000 H   0  0  0  0  0  0  0  0  0  0  0  0
    6.4226    0.6315    0.0000 H   0  0  0  0  0  0  0  0  0  0  0  0
    5.6244    0.6223    0.0000 H   0  0  0  0  0  0  0  0  0  0  0  0
    7.8250   -2.0170    0.0000 H   0  0  0  0  0  0  0  0  0  0  0  0
    8.5168   -1.6212    0.0000 H   0  0  0  0  0  0  0  0  0  0  0  0
    6.8936   -2.5789    0.0000 H   0  0  0  0  0  0  0  0  0  0  0  0
    7.7396   -2.8091    0.0000 H   0  0  0  0  0  0  0  0  0  0  0  0
    7.9698   -1.9630    0.0000 H   0  0  0  0  0  0  0  0  0  0  0  0
    4.8890    1.1178    0.0000 H   0  0  0  0  0  0  0  0  0  0  0  0
    4.2690    1.7378    0.0000 H   0  0  0  0  0  0  0  0  0  0  0  0
    3.6490    1.1178    0.0000 H   0  0  0  0  0  0  0  0  0  0  0  0
    3.6490   -2.8822    0.0000 H   0  0  0  0  0  0  0  0  0  0  0  0
    4.2690   -3.5022    0.0000 H   0  0  0  0  0  0  0  0  0  0  0  0
    4.8890   -2.8822    0.0000 H   0  0  0  0  0  0  0  0  0  0  0  0
    2.2269   -1.3452    0.0000 H   0  0  0  0  0  0  0  0  0  0  0  0
    2.0000   -2.1922    0.0000 H   0  0  0  0  0  0  0  0  0  0  0  0
    2.8469   -2.4191    0.0000 H   0  0  0  0  0  0  0  0  0  0  0  0
    2.0000   -0.1922    0.0000 H   0  0  0  0  0  0  0  0  0  0  0  0
   12.3283   -1.1684    0.0000 H   0  0  0  0  0  0  0  0  0  0  0  0
   13.0201   -0.7725    0.0000 H   0  0  0  0  0  0  0  0  0  0  0  0
    9.6229   -1.9503    0.0000 H   0  0  0  0  0  0  0  0  0  0  0  0
    9.6337    0.8556    0.0000 H   0  0  0  0  0  0  0  0  0  0  0  0
   12.3226    0.3407    0.0000 H   0  0  0  0  0  0  0  0  0  0  0  0
   11.2429   -1.9566    0.0000 H   0  0  0  0  0  0  0  0  0  0  0  0
   11.2537    0.8494    0.0000 H   0  0  0  0  0  0  0  0  0  0  0  0
   14.7156    1.6339    0.0000 H   0  0  0  0  0  0  0  0  0  0  0  0
  1 27  1  0  0  0  0
  1 31  1  0  0  0  0
  2  8  1  0  0  0  0
  2 12  1  0  0  0  0
  3 13  1  0  0  0  0
  3 22  1  0  0  0  0
  4 18  1  0  0  0  0
  4 50  1  0  0  0  0
  5 30  2  0  0  0  0
  6 31  2  0  0  0  0
  7 30  1  0  0  0  0
  7 31  1  0  0  0  0
  7 58  1  0  0  0  0
  8  9  1  0  0  0  0
  8 13  1  0  0  0  0
  8 14  1  0  0  0  0
  9 10  1  0  0  0  0
  9 32  1  0  0  0  0
  9 33  1  0  0  0  0
 10 11  1  0  0  0  0
 10 34  1  0  0  0  0
 10 35  1  0  0  0  0
 11 12  2  0  0  0  0
 11 15  1  0  0  0  0
 12 16  1  0  0  0  0
 13 36  1  0  0  0  0
 13 37  1  0  0  0  0
 14 38  1  0  0  0  0
 14 39  1  0  0  0  0
 14 40  1  0  0  0  0
 15 18  2  0  0  0  0
 15 19  1  0  0  0  0
 16 17  2  0  0  0  0
 16 20  1  0  0  0  0
 17 18  1  0  0  0  0
 17 21  1  0  0  0  0
 19 41  1  0  0  0  0
 19 42  1  0  0  0  0
 19 43  1  0  0  0  0
 20 44  1  0  0  0  0
 20 45  1  0  0  0  0
 20 46  1  0  0  0  0
 21 47  1  0  0  0  0
 21 48  1  0  0  0  0
 21 49  1  0  0  0  0
 22 24  2  0  0  0  0
 22 25  1  0  0  0  0
 23 26  1  0  0  0  0
 23 28  2  0  0  0  0
 23 29  1  0  0  0  0
 24 28  1  0  0  0  0
 24 53  1  0  0  0  0
 25 29  2  0  0  0  0
 25 54  1  0  0  0  0
 26 27  1  0  0  0  0
 26 51  1  0  0  0  0
 26 52  1  0  0  0  0
 27 30  1  0  0  0  0
 27 55  1  0  0  0  0
 28 56  1  0  0  0  0
 29 57  1  0  0  0  0
M  END
> <PUBCHEM_COMPOUND_CID>
5591

> <PUBCHEM_COMPOUND_CANONICALIZED>
1

> <PUBCHEM_CACTVS_COMPLEXITY>
681

> <PUBCHEM_CACTVS_HBOND_ACCEPTOR>
6

> <PUBCHEM_CACTVS_HBOND_DONOR>
2

> <PUBCHEM_CACTVS_ROTATABLE_BOND>
5

> <PUBCHEM_CACTVS_SUBSKEYS>
AAADceB6OABAAAAAAAAAAAAAAAAAAWAAAAA0YIAAAAAAAACRQAAAHgQQCAAADESl2AKyBoLABgiIAiFSEAACCABgIBAIiAEGCIgNJjKmsRqGeCCk1DEKuAfYyPCO4QADAAAYAADCAAYAADAAAAAAAAAAAA==

> <PUBCHEM_IUPAC_OPENEYE_NAME>
5-[[4-[(6-hydroxy-2,5,7,8-tetramethyl-chroman-2-yl)methoxy]phenyl]methyl]thiazolidine-2,4-dione

> <PUBCHEM_IUPAC_CAS_NAME>
5-[[4-[(6-hydroxy-2,5,7,8-tetramethyl-3,4-dihydro-2H-1-benzopyran-2-yl)methoxy]phenyl]methyl]thiazolidine-2,4-dione

> <PUBCHEM_IUPAC_NAME>
5-[[4-[(6-hydroxy-2,5,7,8-tetramethyl-3,4-dihydrochromen-2-yl)methoxy]phenyl]methyl]-1,3-thiazolidine-2,4-dione

> <PUBCHEM_IUPAC_SYSTEMATIC_NAME>
5-[[4-[(2,5,7,8-tetramethyl-6-oxidanyl-3,4-dihydrochromen-2-yl)methoxy]phenyl]methyl]-1,3-thiazolidine-2,4-dione

> <PUBCHEM_IUPAC_TRADITIONAL_NAME>
5-[4-[(6-hydroxy-2,5,7,8-tetramethyl-chroman-2-yl)methoxy]benzyl]thiazolidine-2,4-quinone

> <PUBCHEM_IUPAC_INCHI>
InChI=1S/C24H27NO5S/c1-13-14(2)21-18(15(3)20(13)26)9-10-24(4,30-21)12-29-17-7-5-16(6-8-17)11-19-22(27)25-23(28)31-19/h5-8,19,26H,9-12H2,1-4H3,(H,25,27,28)

> <PUBCHEM_IUPAC_INCHIKEY>
GXPHKUHSUJUWKP-UHFFFAOYSA-N

> <PUBCHEM_XLOGP3_AA>
5.1

> <PUBCHEM_EXACT_MASS>
441.160994

> <PUBCHEM_MOLECULAR_FORMULA>
C24H27NO5S

> <PUBCHEM_MOLECULAR_WEIGHT>
441.53988

> <PUBCHEM_OPENEYE_CAN_SMILES>
CC1=C(C(=C2CCC(OC2=C1C)(C)COC3=CC=C(C=C3)CC4C(=O)NC(=O)S4)C)O

> <PUBCHEM_OPENEYE_ISO_SMILES>
CC1=C(C(=C2CCC(OC2=C1C)(C)COC3=CC=C(C=C3)CC4C(=O)NC(=O)S4)C)O

> <PUBCHEM_CACTVS_TPSA>
110

> <PUBCHEM_MONOISOTOPIC_WEIGHT>
441.160994

> <PUBCHEM_TOTAL_CHARGE>
0

> <PUBCHEM_HEAVY_ATOM_COUNT>
31

> <PUBCHEM_ATOM_DEF_STEREO_COUNT>
0

> <PUBCHEM_ATOM_UDEF_STEREO_COUNT>
2

> <PUBCHEM_BOND_DEF_STEREO_COUNT>
0

> <PUBCHEM_BOND_UDEF_STEREO_COUNT>
0

> <PUBCHEM_ISOTOPIC_ATOM_COUNT>
0

> <PUBCHEM_COMPONENT_COUNT>
1

> <PUBCHEM_CACTVS_TAUTO_COUNT>
45

> <PUBCHEM_COORDINATE_TYPE>
1
5
255

> <PUBCHEM_BONDANNOTATIONS>
11  12  8
11  15  8
12  16  8
15  18  8
16  17  8
17  18  8
22  24  8
22  25  8
23  28  8
23  29  8
24  28  8
25  29  8
27  26  3
8  14  3

$$$$
