60169
  -OEChem-12171208202D

152157  0     1  0  0  0  0  0999 V2000
   19.8785   -4.1327    0.0000 O   0  0  0  0  0  0  0  0  0  0  0  0
    4.6497    4.1327    0.0000 O   0  0  0  0  0  0  0  0  0  0  0  0
   10.2641    0.8660    0.0000 O   0  0  0  0  0  0  0  0  0  0  0  0
   14.2641   -0.8660    0.0000 O   0  0  0  0  0  0  0  0  0  0  0  0
   21.6602   -3.1222    0.0000 O   0  0  0  0  0  0  0  0  0  0  0  0
    2.8680    3.1222    0.0000 O   0  0  0  0  0  0  0  0  0  0  0  0
   21.6602   -1.0739    0.0000 O   0  0  0  0  0  0  0  0  0  0  0  0
    2.8680    1.0739    0.0000 O   0  0  0  0  0  0  0  0  0  0  0  0
   14.6660   -4.0981    0.0000 O   0  0  0  0  0  0  0  0  0  0  0  0
    9.8622    4.0981    0.0000 O   0  0  0  0  0  0  0  0  0  0  0  0
   16.3981   -7.0981    0.0000 O   0  0  0  0  0  0  0  0  0  0  0  0
    8.1301    7.0981    0.0000 O   0  0  0  0  0  0  0  0  0  0  0  0
   14.6660   -6.0981    0.0000 O   0  0  0  0  0  0  0  0  0  0  0  0
    9.8622    6.0981    0.0000 O   0  0  0  0  0  0  0  0  0  0  0  0
   12.7641   -1.7320    0.0000 O   0  0  0  0  0  0  0  0  0  0  0  0
   11.7641    1.7320    0.0000 O   0  0  0  0  0  0  0  0  0  0  0  0
   17.2641   -2.5981    0.0000 N   0  3  3  0  0  0  0  0  0  0  0  0
    7.2641    2.5981    0.0000 N   0  3  3  0  0  0  0  0  0  0  0  0
    6.3981    3.0981    0.0000 C   0  0  3  0  0  0  0  0  0  0  0  0
   18.1301   -3.0981    0.0000 C   0  0  3  0  0  0  0  0  0  0  0  0
   17.2641   -1.5981    0.0000 C   0  0  0  0  0  0  0  0  0  0  0  0
    7.2641    1.5981    0.0000 C   0  0  0  0  0  0  0  0  0  0  0  0
    8.2641    2.5981    0.0000 C   0  0  0  0  0  0  0  0  0  0  0  0
   16.2641   -2.5981    0.0000 C   0  0  0  0  0  0  0  0  0  0  0  0
    5.5320    2.5981    0.0000 C   0  0  0  0  0  0  0  0  0  0  0  0
   18.9961   -2.5981    0.0000 C   0  0  0  0  0  0  0  0  0  0  0  0
   18.1301   -1.0981    0.0000 C   0  0  0  0  0  0  0  0  0  0  0  0
    6.3981    1.0981    0.0000 C   0  0  0  0  0  0  0  0  0  0  0  0
   16.7641   -3.4641    0.0000 C   0  0  0  0  0  0  0  0  0  0  0  0
    7.7641    3.4641    0.0000 C   0  0  0  0  0  0  0  0  0  0  0  0
   18.1301   -4.0981    0.0000 C   0  0  0  0  0  0  0  0  0  0  0  0
    6.3981    4.0981    0.0000 C   0  0  0  0  0  0  0  0  0  0  0  0
    5.5320    1.5981    0.0000 C   0  0  0  0  0  0  0  0  0  0  0  0
   18.9961   -1.5981    0.0000 C   0  0  0  0  0  0  0  0  0  0  0  0
   15.7641   -1.7320    0.0000 C   0  0  0  0  0  0  0  0  0  0  0  0
    8.7641    1.7320    0.0000 C   0  0  0  0  0  0  0  0  0  0  0  0
    4.6381    3.1327    0.0000 C   0  0  0  0  0  0  0  0  0  0  0  0
   19.8901   -3.1327    0.0000 C   0  0  0  0  0  0  0  0  0  0  0  0
    7.2641    4.5981    0.0000 C   0  0  0  0  0  0  0  0  0  0  0  0
   17.2641   -4.5981    0.0000 C   0  0  0  0  0  0  0  0  0  0  0  0
   19.8901   -1.0634    0.0000 C   0  0  0  0  0  0  0  0  0  0  0  0
    4.6381    1.0634    0.0000 C   0  0  0  0  0  0  0  0  0  0  0  0
    9.7641    1.7320    0.0000 C   0  0  0  0  0  0  0  0  0  0  0  0
   14.7641   -1.7320    0.0000 C   0  0  0  0  0  0  0  0  0  0  0  0
    3.7320    2.6189    0.0000 C   0  0  0  0  0  0  0  0  0  0  0  0
   20.7962   -2.6189    0.0000 C   0  0  0  0  0  0  0  0  0  0  0  0
    3.7320    1.5773    0.0000 C   0  0  0  0  0  0  0  0  0  0  0  0
   20.7962   -1.5773    0.0000 C   0  0  0  0  0  0  0  0  0  0  0  0
   17.2641   -5.5981    0.0000 C   0  0  0  0  0  0  0  0  0  0  0  0
    7.2641    5.5981    0.0000 C   0  0  0  0  0  0  0  0  0  0  0  0
   16.3981   -4.0981    0.0000 C   0  0  0  0  0  0  0  0  0  0  0  0
    8.1301    4.0981    0.0000 C   0  0  0  0  0  0  0  0  0  0  0  0
   15.5320   -4.5981    0.0000 C   0  0  0  0  0  0  0  0  0  0  0  0
    8.9962    4.5981    0.0000 C   0  0  0  0  0  0  0  0  0  0  0  0
   16.3981   -6.0981    0.0000 C   0  0  0  0  0  0  0  0  0  0  0  0
    8.1301    6.0981    0.0000 C   0  0  0  0  0  0  0  0  0  0  0  0
   15.5320   -5.5981    0.0000 C   0  0  0  0  0  0  0  0  0  0  0  0
    8.9962    5.5981    0.0000 C   0  0  0  0  0  0  0  0  0  0  0  0
   20.7387   -4.6426    0.0000 C   0  0  0  0  0  0  0  0  0  0  0  0
    3.7895    4.6426    0.0000 C   0  0  0  0  0  0  0  0  0  0  0  0
   11.2641    0.8660    0.0000 C   0  0  0  0  0  0  0  0  0  0  0  0
   13.2641   -0.8660    0.0000 C   0  0  0  0  0  0  0  0  0  0  0  0
   11.7641    0.0000    0.0000 C   0  0  0  0  0  0  0  0  0  0  0  0
   12.7641    0.0000    0.0000 C   0  0  0  0  0  0  0  0  0  0  0  0
   22.5282   -2.6256    0.0000 C   0  0  0  0  0  0  0  0  0  0  0  0
    2.0000    2.6256    0.0000 C   0  0  0  0  0  0  0  0  0  0  0  0
   21.6564   -0.0739    0.0000 C   0  0  0  0  0  0  0  0  0  0  0  0
    2.8718    0.0739    0.0000 C   0  0  0  0  0  0  0  0  0  0  0  0
   10.7282    4.5981    0.0000 C   0  0  0  0  0  0  0  0  0  0  0  0
   13.8000   -4.5981    0.0000 C   0  0  0  0  0  0  0  0  0  0  0  0
    7.2641    7.5981    0.0000 C   0  0  0  0  0  0  0  0  0  0  0  0
   17.2641   -7.5981    0.0000 C   0  0  0  0  0  0  0  0  0  0  0  0
   14.6660   -7.0981    0.0000 C   0  0  0  0  0  0  0  0  0  0  0  0
    9.8622    7.0981    0.0000 C   0  0  0  0  0  0  0  0  0  0  0  0
    6.9350    3.4081    0.0000 H   0  0  0  0  0  0  0  0  0  0  0  0
   17.5932   -3.4081    0.0000 H   0  0  0  0  0  0  0  0  0  0  0  0
   17.0520   -1.0155    0.0000 H   0  0  0  0  0  0  0  0  0  0  0  0
   16.6535   -1.7057    0.0000 H   0  0  0  0  0  0  0  0  0  0  0  0
    7.4762    1.0155    0.0000 H   0  0  0  0  0  0  0  0  0  0  0  0
    7.8747    1.7057    0.0000 H   0  0  0  0  0  0  0  0  0  0  0  0
   15.6815   -2.8101    0.0000 H   0  0  0  0  0  0  0  0  0  0  0  0
   16.3718   -3.2087    0.0000 H   0  0  0  0  0  0  0  0  0  0  0  0
    8.8467    2.8101    0.0000 H   0  0  0  0  0  0  0  0  0  0  0  0
    8.1564    3.2087    0.0000 H   0  0  0  0  0  0  0  0  0  0  0  0
   18.5287   -0.6231    0.0000 H   0  0  0  0  0  0  0  0  0  0  0  0
   17.7316   -0.6231    0.0000 H   0  0  0  0  0  0  0  0  0  0  0  0
    5.9995    0.6231    0.0000 H   0  0  0  0  0  0  0  0  0  0  0  0
    6.7966    0.6231    0.0000 H   0  0  0  0  0  0  0  0  0  0  0  0
   16.2272   -3.1541    0.0000 H   0  0  0  0  0  0  0  0  0  0  0  0
   16.4541   -4.0010    0.0000 H   0  0  0  0  0  0  0  0  0  0  0  0
   17.3010   -3.7741    0.0000 H   0  0  0  0  0  0  0  0  0  0  0  0
    8.3010    3.1541    0.0000 H   0  0  0  0  0  0  0  0  0  0  0  0
    8.0741    4.0010    0.0000 H   0  0  0  0  0  0  0  0  0  0  0  0
    7.2272    3.7741    0.0000 H   0  0  0  0  0  0  0  0  0  0  0  0
    6.1860    4.6807    0.0000 H   0  0  0  0  0  0  0  0  0  0  0  0
    5.7875    3.9904    0.0000 H   0  0  0  0  0  0  0  0  0  0  0  0
   18.3422   -4.6807    0.0000 H   0  0  0  0  0  0  0  0  0  0  0  0
   18.7407   -3.9904    0.0000 H   0  0  0  0  0  0  0  0  0  0  0  0
   16.3467   -1.5200    0.0000 H   0  0  0  0  0  0  0  0  0  0  0  0
   15.6564   -1.1215    0.0000 H   0  0  0  0  0  0  0  0  0  0  0  0
    8.1815    1.5200    0.0000 H   0  0  0  0  0  0  0  0  0  0  0  0
    8.8718    1.1215    0.0000 H   0  0  0  0  0  0  0  0  0  0  0  0
    4.6453    0.4435    0.0000 H   0  0  0  0  0  0  0  0  0  0  0  0
   19.8829   -0.4435    0.0000 H   0  0  0  0  0  0  0  0  0  0  0  0
   10.3467    1.9441    0.0000 H   0  0  0  0  0  0  0  0  0  0  0  0
    9.6564    2.3426    0.0000 H   0  0  0  0  0  0  0  0  0  0  0  0
   14.1815   -1.9441    0.0000 H   0  0  0  0  0  0  0  0  0  0  0  0
   14.8718   -2.3426    0.0000 H   0  0  0  0  0  0  0  0  0  0  0  0
    6.7272    5.9081    0.0000 H   0  0  0  0  0  0  0  0  0  0  0  0
   17.8010   -5.9081    0.0000 H   0  0  0  0  0  0  0  0  0  0  0  0
    8.1301    3.4781    0.0000 H   0  0  0  0  0  0  0  0  0  0  0  0
   16.3981   -3.4781    0.0000 H   0  0  0  0  0  0  0  0  0  0  0  0
   20.4225   -5.1760    0.0000 H   0  0  0  0  0  0  0  0  0  0  0  0
   21.2720   -4.9588    0.0000 H   0  0  0  0  0  0  0  0  0  0  0  0
   21.0549   -4.1093    0.0000 H   0  0  0  0  0  0  0  0  0  0  0  0
    4.1057    5.1760    0.0000 H   0  0  0  0  0  0  0  0  0  0  0  0
    3.2562    4.9588    0.0000 H   0  0  0  0  0  0  0  0  0  0  0  0
    3.4733    4.1093    0.0000 H   0  0  0  0  0  0  0  0  0  0  0  0
   13.3467    0.2121    0.0000 H   0  0  0  0  0  0  0  0  0  0  0  0
   12.6564    0.6106    0.0000 H   0  0  0  0  0  0  0  0  0  0  0  0
   11.1815   -0.2121    0.0000 H   0  0  0  0  0  0  0  0  0  0  0  0
   11.8718   -0.6106    0.0000 H   0  0  0  0  0  0  0  0  0  0  0  0
   22.8361   -3.1637    0.0000 H   0  0  0  0  0  0  0  0  0  0  0  0
   23.0663   -2.3176    0.0000 H   0  0  0  0  0  0  0  0  0  0  0  0
    1.6921    3.1637    0.0000 H   0  0  0  0  0  0  0  0  0  0  0  0
    1.4619    2.3176    0.0000 H   0  0  0  0  0  0  0  0  0  0  0  0
    2.3079    2.0874    0.0000 H   0  0  0  0  0  0  0  0  0  0  0  0
   22.2203   -2.0874    0.0000 H   0  0  0  0  0  0  0  0  0  0  0  0
   22.2764   -0.0715    0.0000 H   0  0  0  0  0  0  0  0  0  0  0  0
   21.6540    0.5461    0.0000 H   0  0  0  0  0  0  0  0  0  0  0  0
   21.0364   -0.0763    0.0000 H   0  0  0  0  0  0  0  0  0  0  0  0
    2.2518    0.0715    0.0000 H   0  0  0  0  0  0  0  0  0  0  0  0
    2.8742   -0.5461    0.0000 H   0  0  0  0  0  0  0  0  0  0  0  0
    3.4918    0.0763    0.0000 H   0  0  0  0  0  0  0  0  0  0  0  0
   11.0382    4.0611    0.0000 H   0  0  0  0  0  0  0  0  0  0  0  0
   11.2651    4.9081    0.0000 H   0  0  0  0  0  0  0  0  0  0  0  0
   10.4182    5.1350    0.0000 H   0  0  0  0  0  0  0  0  0  0  0  0
   13.4900   -4.0611    0.0000 H   0  0  0  0  0  0  0  0  0  0  0  0
   13.2631   -4.9081    0.0000 H   0  0  0  0  0  0  0  0  0  0  0  0
   14.1100   -5.1350    0.0000 H   0  0  0  0  0  0  0  0  0  0  0  0
    7.5741    8.1350    0.0000 H   0  0  0  0  0  0  0  0  0  0  0  0
    6.7272    7.9081    0.0000 H   0  0  0  0  0  0  0  0  0  0  0  0
    6.9541    7.0611    0.0000 H   0  0  0  0  0  0  0  0  0  0  0  0
   16.9541   -8.1350    0.0000 H   0  0  0  0  0  0  0  0  0  0  0  0
   17.8010   -7.9081    0.0000 H   0  0  0  0  0  0  0  0  0  0  0  0
   17.5741   -7.0611    0.0000 H   0  0  0  0  0  0  0  0  0  0  0  0
   10.4822    7.0981    0.0000 H   0  0  0  0  0  0  0  0  0  0  0  0
    9.8622    7.7181    0.0000 H   0  0  0  0  0  0  0  0  0  0  0  0
    9.2422    7.0981    0.0000 H   0  0  0  0  0  0  0  0  0  0  0  0
   14.0460   -7.0981    0.0000 H   0  0  0  0  0  0  0  0  0  0  0  0
   14.6660   -7.7181    0.0000 H   0  0  0  0  0  0  0  0  0  0  0  0
   15.2860   -7.0981    0.0000 H   0  0  0  0  0  0  0  0  0  0  0  0
  1 38  1  0  0  0  0
  1 59  1  0  0  0  0
  2 37  1  0  0  0  0
  2 60  1  0  0  0  0
  3 43  1  0  0  0  0
  3 61  1  0  0  0  0
  4 44  1  0  0  0  0
  4 62  1  0  0  0  0
  5 46  1  0  0  0  0
  5 65  1  0  0  0  0
  6 45  1  0  0  0  0
  6 66  1  0  0  0  0
  7 48  1  0  0  0  0
  7 67  1  0  0  0  0
  8 47  1  0  0  0  0
  8 68  1  0  0  0  0
  9 53  1  0  0  0  0
  9 70  1  0  0  0  0
 10 54  1  0  0  0  0
 10 69  1  0  0  0  0
 11 55  1  0  0  0  0
 11 72  1  0  0  0  0
 12 56  1  0  0  0  0
 12 71  1  0  0  0  0
 13 57  1  0  0  0  0
 13 73  1  0  0  0  0
 14 58  1  0  0  0  0
 14 74  1  0  0  0  0
 15 62  2  0  0  0  0
 16 61  2  0  0  0  0
 17 20  1  0  0  0  0
 17 21  1  0  0  0  0
 17 24  1  0  0  0  0
 17 29  1  0  0  0  0
 18 19  1  0  0  0  0
 18 22  1  0  0  0  0
 18 23  1  0  0  0  0
 18 30  1  0  0  0  0
 19 25  1  0  0  0  0
 19 32  1  0  0  0  0
 19 75  1  0  0  0  0
 20 26  1  0  0  0  0
 20 31  1  0  0  0  0
 20 76  1  0  0  0  0
 21 27  1  0  0  0  0
 21 77  1  0  0  0  0
 21 78  1  0  0  0  0
 22 28  1  0  0  0  0
 22 79  1  0  0  0  0
 22 80  1  0  0  0  0
 23 36  1  0  0  0  0
 23 83  1  0  0  0  0
 23 84  1  0  0  0  0
 24 35  1  0  0  0  0
 24 81  1  0  0  0  0
 24 82  1  0  0  0  0
 25 33  1  0  0  0  0
 25 37  2  0  0  0  0
 26 34  1  0  0  0  0
 26 38  2  0  0  0  0
 27 34  1  0  0  0  0
 27 85  1  0  0  0  0
 27 86  1  0  0  0  0
 28 33  1  0  0  0  0
 28 87  1  0  0  0  0
 28 88  1  0  0  0  0
 29 89  1  0  0  0  0
 29 90  1  0  0  0  0
 29 91  1  0  0  0  0
 30 92  1  0  0  0  0
 30 93  1  0  0  0  0
 30 94  1  0  0  0  0
 31 40  1  0  0  0  0
 31 97  1  0  0  0  0
 31 98  1  0  0  0  0
 32 39  1  0  0  0  0
 32 95  1  0  0  0  0
 32 96  1  0  0  0  0
 33 42  2  0  0  0  0
 34 41  2  0  0  0  0
 35 44  1  0  0  0  0
 35 99  1  0  0  0  0
 35100  1  0  0  0  0
 36 43  1  0  0  0  0
 36101  1  0  0  0  0
 36102  1  0  0  0  0
 37 45  1  0  0  0  0
 38 46  1  0  0  0  0
 39 50  2  0  0  0  0
 39 52  1  0  0  0  0
 40 49  2  0  0  0  0
 40 51  1  0  0  0  0
 41 48  1  0  0  0  0
 41104  1  0  0  0  0
 42 47  1  0  0  0  0
 42103  1  0  0  0  0
 43105  1  0  0  0  0
 43106  1  0  0  0  0
 44107  1  0  0  0  0
 44108  1  0  0  0  0
 45 47  2  0  0  0  0
 46 48  2  0  0  0  0
 49 55  1  0  0  0  0
 49110  1  0  0  0  0
 50 56  1  0  0  0  0
 50109  1  0  0  0  0
 51 53  2  0  0  0  0
 51112  1  0  0  0  0
 52 54  2  0  0  0  0
 52111  1  0  0  0  0
 53 57  1  0  0  0  0
 54 58  1  0  0  0  0
 55 57  2  0  0  0  0
 56 58  2  0  0  0  0
 59113  1  0  0  0  0
 59114  1  0  0  0  0
 59115  1  0  0  0  0
 60116  1  0  0  0  0
 60117  1  0  0  0  0
 60118  1  0  0  0  0
 61 63  1  0  0  0  0
 62 64  1  0  0  0  0
 63 64  1  0  0  0  0
 63121  1  0  0  0  0
 63122  1  0  0  0  0
 64119  1  0  0  0  0
 64120  1  0  0  0  0
 65123  1  0  0  0  0
 65124  1  0  0  0  0
 65128  1  0  0  0  0
 66125  1  0  0  0  0
 66126  1  0  0  0  0
 66127  1  0  0  0  0
 67129  1  0  0  0  0
 67130  1  0  0  0  0
 67131  1  0  0  0  0
 68132  1  0  0  0  0
 68133  1  0  0  0  0
 68134  1  0  0  0  0
 69135  1  0  0  0  0
 69136  1  0  0  0  0
 69137  1  0  0  0  0
 70138  1  0  0  0  0
 70139  1  0  0  0  0
 70140  1  0  0  0  0
 71141  1  0  0  0  0
 71142  1  0  0  0  0
 71143  1  0  0  0  0
 72144  1  0  0  0  0
 72145  1  0  0  0  0
 72146  1  0  0  0  0
 73150  1  0  0  0  0
 73151  1  0  0  0  0
 73152  1  0  0  0  0
 74147  1  0  0  0  0
 74148  1  0  0  0  0
 74149  1  0  0  0  0
M  CHG  2  17   1  18   1
M  END
> <PUBCHEM_COMPOUND_CID>
60169

> <PUBCHEM_COMPOUND_CANONICALIZED>
1

> <PUBCHEM_CACTVS_COMPLEXITY>
1540

> <PUBCHEM_CACTVS_HBOND_ACCEPTOR>
16

> <PUBCHEM_CACTVS_HBOND_DONOR>
0

> <PUBCHEM_CACTVS_ROTATABLE_BOND>
29

> <PUBCHEM_CACTVS_SUBSKEYS>
AAADcfB/PgAAAAAAAAAAAAAAAAAAAAAAAAA8eMGCAAAAAACxVAAAHgAAAAAADCzhmAYyDoMABACIAiDSCACCCAAgIAAAiAEOjIgNJzKEsRuGMCpnwBWKqAfz8P8OoAABCAAYQABAAAIQADCAAAAAAAAAAA==

> <PUBCHEM_IUPAC_OPENEYE_NAME>
bis[3-[6,7,8-trimethoxy-2-methyl-1-[(3,4,5-trimethoxyphenyl)methyl]-3,4-dihydro-1H-isoquinolin-2-ium-2-yl]propyl] butanedioate

> <PUBCHEM_IUPAC_CAS_NAME>
butanedioic acid bis[3-[6,7,8-trimethoxy-2-methyl-1-[(3,4,5-trimethoxyphenyl)methyl]-3,4-dihydro-1H-isoquinolin-2-ium-2-yl]propyl] ester

> <PUBCHEM_IUPAC_NAME>
bis[3-[6,7,8-trimethoxy-2-methyl-1-[(3,4,5-trimethoxyphenyl)methyl]-3,4-dihydro-1H-isoquinolin-2-ium-2-yl]propyl] butanedioate

> <PUBCHEM_IUPAC_SYSTEMATIC_NAME>
bis[3-[6,7,8-trimethoxy-2-methyl-1-[(3,4,5-trimethoxyphenyl)methyl]-3,4-dihydro-1H-isoquinolin-2-ium-2-yl]propyl] butanedioate

> <PUBCHEM_IUPAC_TRADITIONAL_NAME>
succinic acid bis[3-[6,7,8-trimethoxy-2-methyl-1-(3,4,5-trimethoxybenzyl)-3,4-dihydro-1H-isoquinolin-2-ium-2-yl]propyl] ester

> <PUBCHEM_IUPAC_INCHI>
InChI=1S/C56H78N2O16/c1-57(23-19-37-33-45(65-7)53(69-11)55(71-13)49(37)39(57)27-35-29-41(61-3)51(67-9)42(30-35)62-4)21-15-25-73-47(59)17-18-48(60)74-26-16-22-58(2)24-20-38-34-46(66-8)54(70-12)56(72-14)50(38)40(58)28-36-31-43(63-5)52(68-10)44(32-36)64-6/h29-34,39-40H,15-28H2,1-14H3/q+2

> <PUBCHEM_IUPAC_INCHIKEY>
GBLRQXKSCRCLBZ-UHFFFAOYSA-N

> <PUBCHEM_XLOGP3_AA>
7.4

> <PUBCHEM_EXACT_MASS>
1034.535134

> <PUBCHEM_MOLECULAR_FORMULA>
C56H78N2O16+2

> <PUBCHEM_MOLECULAR_WEIGHT>
1035.22232

> <PUBCHEM_OPENEYE_CAN_SMILES>
C[N+]1(CCC2=CC(=C(C(=C2C1CC3=CC(=C(C(=C3)OC)OC)OC)OC)OC)OC)CCCOC(=O)CCC(=O)OCCC[N+]4(CCC5=CC(=C(C(=C5C4CC6=CC(=C(C(=C6)OC)OC)OC)OC)OC)OC)C

> <PUBCHEM_OPENEYE_ISO_SMILES>
C[N+]1(CCC2=CC(=C(C(=C2C1CC3=CC(=C(C(=C3)OC)OC)OC)OC)OC)OC)CCCOC(=O)CCC(=O)OCCC[N+]4(CCC5=CC(=C(C(=C5C4CC6=CC(=C(C(=C6)OC)OC)OC)OC)OC)OC)C

> <PUBCHEM_CACTVS_TPSA>
163

> <PUBCHEM_MONOISOTOPIC_WEIGHT>
1034.535134

> <PUBCHEM_TOTAL_CHARGE>
2

> <PUBCHEM_HEAVY_ATOM_COUNT>
74

> <PUBCHEM_ATOM_DEF_STEREO_COUNT>
0

> <PUBCHEM_ATOM_UDEF_STEREO_COUNT>
4

> <PUBCHEM_BOND_DEF_STEREO_COUNT>
0

> <PUBCHEM_BOND_UDEF_STEREO_COUNT>
0

> <PUBCHEM_ISOTOPIC_ATOM_COUNT>
0

> <PUBCHEM_COMPONENT_COUNT>
1

> <PUBCHEM_CACTVS_TAUTO_COUNT>
1

> <PUBCHEM_COORDINATE_TYPE>
1
5
255

> <PUBCHEM_BONDANNOTATIONS>
17  29  3
18  30  3
19  32  3
20  31  3
25  33  8
25  37  8
26  34  8
26  38  8
33  42  8
34  41  8
37  45  8
38  46  8
39  50  8
39  52  8
40  49  8
40  51  8
41  48  8
42  47  8
45  47  8
46  48  8
49  55  8
50  56  8
51  53  8
52  54  8
53  57  8
54  58  8
55  57  8
56  58  8

$$$$
