60164
  -OEChem-12171208192D

 59 64  0     0  0  0  0  0  0999 V2000
    9.8462   -1.4964    0.0000 O   0  0  0  0  0  0  0  0  0  0  0  0
    2.8602    4.5487    0.0000 O   0  0  0  0  0  0  0  0  0  0  0  0
    2.0000    3.0454    0.0000 O   0  0  0  0  0  0  0  0  0  0  0  0
    8.1142   -2.4964    0.0000 C   0  0  0  0  0  0  0  0  0  0  0  0
    8.9504   -3.9447    0.0000 C   0  0  0  0  0  0  0  0  0  0  0  0
    7.4231   -4.3798    0.0000 C   0  0  0  0  0  0  0  0  0  0  0  0
    7.2780   -3.9447    0.0000 C   0  0  0  0  0  0  0  0  0  0  0  0
    8.9504   -2.9792    0.0000 C   0  0  0  0  0  0  0  0  0  0  0  0
    7.4231   -3.3345    0.0000 C   0  0  0  0  0  0  0  0  0  0  0  0
    7.2780   -2.9792    0.0000 C   0  0  0  0  0  0  0  0  0  0  0  0
    8.1142   -4.2475    0.0000 C   0  0  0  0  0  0  0  0  0  0  0  0
    8.3288   -4.8566    0.0000 C   0  0  0  0  0  0  0  0  0  0  0  0
    6.4412   -4.4275    0.0000 C   0  0  0  0  0  0  0  0  0  0  0  0
    8.1142   -1.4964    0.0000 C   0  0  0  0  0  0  0  0  0  0  0  0
    8.9802   -0.9964    0.0000 C   0  0  0  0  0  0  0  0  0  0  0  0
    7.2482   -0.9964    0.0000 C   0  0  0  0  0  0  0  0  0  0  0  0
    7.2482    0.0036    0.0000 C   0  0  0  0  0  0  0  0  0  0  0  0
    8.9802    0.0036    0.0000 C   0  0  0  0  0  0  0  0  0  0  0  0
    8.1142    0.5036    0.0000 C   0  0  0  0  0  0  0  0  0  0  0  0
    6.3821    0.5036    0.0000 C   0  0  0  0  0  0  0  0  0  0  0  0
   10.7123   -0.9964    0.0000 C   0  0  0  0  0  0  0  0  0  0  0  0
    6.3821    1.5036    0.0000 C   0  0  0  0  0  0  0  0  0  0  0  0
    5.5161    0.0036    0.0000 C   0  0  0  0  0  0  0  0  0  0  0  0
    5.5161    2.0036    0.0000 C   0  0  0  0  0  0  0  0  0  0  0  0
    4.6501    0.5036    0.0000 C   0  0  0  0  0  0  0  0  0  0  0  0
    4.6501    1.5036    0.0000 C   0  0  0  0  0  0  0  0  0  0  0  0
    5.5322    3.0451    0.0000 C   0  0  0  0  0  0  0  0  0  0  0  0
    3.7401    2.0104    0.0000 C   0  0  0  0  0  0  0  0  0  0  0  0
    4.6341    3.5729    0.0000 C   0  0  0  0  0  0  0  0  0  0  0  0
    3.7320    3.0520    0.0000 C   0  0  0  0  0  0  0  0  0  0  0  0
    2.8641    3.5487    0.0000 C   0  0  0  0  0  0  0  0  0  0  0  0
    9.5428   -4.1274    0.0000 H   0  0  0  0  0  0  0  0  0  0  0  0
    7.2890   -4.9851    0.0000 H   0  0  0  0  0  0  0  0  0  0  0  0
    7.3324   -4.5623    0.0000 H   0  0  0  0  0  0  0  0  0  0  0  0
    9.5610   -3.0868    0.0000 H   0  0  0  0  0  0  0  0  0  0  0  0
    9.1624   -2.3966    0.0000 H   0  0  0  0  0  0  0  0  0  0  0  0
    7.0795   -2.8185    0.0000 H   0  0  0  0  0  0  0  0  0  0  0  0
    6.8297   -3.5140    0.0000 H   0  0  0  0  0  0  0  0  0  0  0  0
    7.0659   -2.3966    0.0000 H   0  0  0  0  0  0  0  0  0  0  0  0
    6.6674   -3.0868    0.0000 H   0  0  0  0  0  0  0  0  0  0  0  0
    8.0194   -5.3939    0.0000 H   0  0  0  0  0  0  0  0  0  0  0  0
    8.8539   -5.1862    0.0000 H   0  0  0  0  0  0  0  0  0  0  0  0
    7.7442   -4.7450    0.0000 H   0  0  0  0  0  0  0  0  0  0  0  0
    8.4842   -4.7450    0.0000 H   0  0  0  0  0  0  0  0  0  0  0  0
    5.9599   -4.0366    0.0000 H   0  0  0  0  0  0  0  0  0  0  0  0
    6.2480   -5.0166    0.0000 H   0  0  0  0  0  0  0  0  0  0  0  0
    6.7112   -1.3064    0.0000 H   0  0  0  0  0  0  0  0  0  0  0  0
    9.5171    0.3136    0.0000 H   0  0  0  0  0  0  0  0  0  0  0  0
    8.1142    1.1236    0.0000 H   0  0  0  0  0  0  0  0  0  0  0  0
   11.0223   -1.5333    0.0000 H   0  0  0  0  0  0  0  0  0  0  0  0
   11.2492   -0.6864    0.0000 H   0  0  0  0  0  0  0  0  0  0  0  0
   10.4023   -0.4594    0.0000 H   0  0  0  0  0  0  0  0  0  0  0  0
    6.9191    1.8136    0.0000 H   0  0  0  0  0  0  0  0  0  0  0  0
    5.5161   -0.6164    0.0000 H   0  0  0  0  0  0  0  0  0  0  0  0
    4.1131    0.1936    0.0000 H   0  0  0  0  0  0  0  0  0  0  0  0
    6.0726    3.3489    0.0000 H   0  0  0  0  0  0  0  0  0  0  0  0
    3.2068    1.6942    0.0000 H   0  0  0  0  0  0  0  0  0  0  0  0
    4.6365    4.1928    0.0000 H   0  0  0  0  0  0  0  0  0  0  0  0
    2.3221    4.8566    0.0000 H   0  0  0  0  0  0  0  0  0  0  0  0
  1 15  1  0  0  0  0
  1 21  1  0  0  0  0
  2 31  1  0  0  0  0
  2 59  1  0  0  0  0
  3 31  2  0  0  0  0
  4  8  1  0  0  0  0
  4  9  1  0  0  0  0
  4 10  1  0  0  0  0
  4 14  1  0  0  0  0
  5  8  1  0  0  0  0
  5 11  1  0  0  0  0
  5 12  1  0  0  0  0
  5 32  1  0  0  0  0
  6  9  1  0  0  0  0
  6 12  1  0  0  0  0
  6 13  1  0  0  0  0
  6 33  1  0  0  0  0
  7 10  1  0  0  0  0
  7 11  1  0  0  0  0
  7 13  1  0  0  0  0
  7 34  1  0  0  0  0
  8 35  1  0  0  0  0
  8 36  1  0  0  0  0
  9 37  1  0  0  0  0
  9 38  1  0  0  0  0
 10 39  1  0  0  0  0
 10 40  1  0  0  0  0
 11 43  1  0  0  0  0
 11 44  1  0  0  0  0
 12 41  1  0  0  0  0
 12 42  1  0  0  0  0
 13 45  1  0  0  0  0
 13 46  1  0  0  0  0
 14 15  2  0  0  0  0
 14 16  1  0  0  0  0
 15 18  1  0  0  0  0
 16 17  2  0  0  0  0
 16 47  1  0  0  0  0
 17 19  1  0  0  0  0
 17 20  1  0  0  0  0
 18 19  2  0  0  0  0
 18 48  1  0  0  0  0
 19 49  1  0  0  0  0
 20 22  2  0  0  0  0
 20 23  1  0  0  0  0
 21 50  1  0  0  0  0
 21 51  1  0  0  0  0
 21 52  1  0  0  0  0
 22 24  1  0  0  0  0
 22 53  1  0  0  0  0
 23 25  2  0  0  0  0
 23 54  1  0  0  0  0
 24 26  2  0  0  0  0
 24 27  1  0  0  0  0
 25 26  1  0  0  0  0
 25 55  1  0  0  0  0
 26 28  1  0  0  0  0
 27 29  2  0  0  0  0
 27 56  1  0  0  0  0
 28 30  2  0  0  0  0
 28 57  1  0  0  0  0
 29 30  1  0  0  0  0
 29 58  1  0  0  0  0
 30 31  1  0  0  0  0
M  END
> <PUBCHEM_COMPOUND_CID>
60164

> <PUBCHEM_COMPOUND_CANONICALIZED>
1

> <PUBCHEM_CACTVS_COMPLEXITY>
645

> <PUBCHEM_CACTVS_HBOND_ACCEPTOR>
3

> <PUBCHEM_CACTVS_HBOND_DONOR>
1

> <PUBCHEM_CACTVS_ROTATABLE_BOND>
4

> <PUBCHEM_CACTVS_SUBSKEYS>
AAADceB4MAAAAAAAAAAAAAAAAAAAAAAAAAAwYMGDAAAAAADBVAAAGgAACAAADwSAmAIyDsAABgCIAiDSCAACCAAkIAAIiAEGCMgMJjKENRqAcSAkwBEIuYeIyPCP4AACAAAYAADAAAQAADAAAAAAAAAAAA==

> <PUBCHEM_IUPAC_OPENEYE_NAME>
6-[3-(1-adamantyl)-4-methoxy-phenyl]naphthalene-2-carboxylic acid

> <PUBCHEM_IUPAC_CAS_NAME>
6-[3-(1-adamantyl)-4-methoxyphenyl]-2-naphthalenecarboxylic acid

> <PUBCHEM_IUPAC_NAME>
6-[3-(1-adamantyl)-4-methoxyphenyl]naphthalene-2-carboxylic acid

> <PUBCHEM_IUPAC_SYSTEMATIC_NAME>
6-[3-(1-adamantyl)-4-methoxy-phenyl]naphthalene-2-carboxylic acid

> <PUBCHEM_IUPAC_TRADITIONAL_NAME>
6-[3-(1-adamantyl)-4-methoxy-phenyl]-2-naphthoic acid

> <PUBCHEM_IUPAC_INCHI>
InChI=1S/C28H28O3/c1-31-26-7-6-23(21-2-3-22-12-24(27(29)30)5-4-20(22)11-21)13-25(26)28-14-17-8-18(15-28)10-19(9-17)16-28/h2-7,11-13,17-19H,8-10,14-16H2,1H3,(H,29,30)

> <PUBCHEM_IUPAC_INCHIKEY>
LZCDAPDGXCYOEH-UHFFFAOYSA-N

> <PUBCHEM_XLOGP3_AA>
7.7

> <PUBCHEM_EXACT_MASS>
412.203845

> <PUBCHEM_MOLECULAR_FORMULA>
C28H28O3

> <PUBCHEM_MOLECULAR_WEIGHT>
412.52012

> <PUBCHEM_OPENEYE_CAN_SMILES>
COC1=C(C=C(C=C1)C2=CC3=C(C=C2)C=C(C=C3)C(=O)O)C45CC6CC(C4)CC(C6)C5

> <PUBCHEM_OPENEYE_ISO_SMILES>
COC1=C(C=C(C=C1)C2=CC3=C(C=C2)C=C(C=C3)C(=O)O)C45CC6CC(C4)CC(C6)C5

> <PUBCHEM_CACTVS_TPSA>
46.5

> <PUBCHEM_MONOISOTOPIC_WEIGHT>
412.203845

> <PUBCHEM_TOTAL_CHARGE>
0

> <PUBCHEM_HEAVY_ATOM_COUNT>
31

> <PUBCHEM_ATOM_DEF_STEREO_COUNT>
0

> <PUBCHEM_ATOM_UDEF_STEREO_COUNT>
0

> <PUBCHEM_BOND_DEF_STEREO_COUNT>
0

> <PUBCHEM_BOND_UDEF_STEREO_COUNT>
0

> <PUBCHEM_ISOTOPIC_ATOM_COUNT>
0

> <PUBCHEM_COMPONENT_COUNT>
1

> <PUBCHEM_CACTVS_TAUTO_COUNT>
1

> <PUBCHEM_COORDINATE_TYPE>
1
5
255

> <PUBCHEM_BONDANNOTATIONS>
14  15  8
14  16  8
15  18  8
16  17  8
17  19  8
18  19  8
20  22  8
20  23  8
22  24  8
23  25  8
24  26  8
24  27  8
25  26  8
26  28  8
27  29  8
28  30  8
29  30  8

$$$$
