60831
  -OEChem-12171208202D

 48 52  0     1  0  0  0  0  0999 V2000
   11.1481   -0.7596    0.0000 S   0  0  0  0  0  0  0  0  0  0  0  0
    9.7755   -2.8732    0.0000 S   0  0  0  0  0  0  0  0  0  0  0  0
    2.0000   -0.2315    0.0000 O   0  0  0  0  0  0  0  0  0  0  0  0
    8.1803    0.0946    0.0000 O   0  0  0  0  0  0  0  0  0  0  0  0
    7.7320   -1.5784    0.0000 O   0  0  0  0  0  0  0  0  0  0  0  0
    9.6638   -0.1642    0.0000 O   0  0  0  0  0  0  0  0  0  0  0  0
    4.2547    2.7173    0.0000 N   0  3  0  0  0  0  0  0  0  0  0  0
    4.9913    1.7347    0.0000 C   0  0  3  0  0  0  0  0  0  0  0  0
    4.7325    0.7688    0.0000 C   0  0  3  0  0  0  0  0  0  0  0  0
    2.5004    0.6348    0.0000 C   0  0  3  0  0  0  0  0  0  0  0  0
    3.0004   -0.2312    0.0000 C   0  0  3  0  0  0  0  0  0  0  0  0
    6.8560    1.2870    0.0000 C   0  0  0  0  0  0  0  0  0  0  0  0
    6.4372   -0.2759    0.0000 C   0  0  0  0  0  0  0  0  0  0  0  0
    7.2143    0.3535    0.0000 C   0  0  0  0  0  0  0  0  0  0  0  0
    4.3592    3.7118    0.0000 C   0  0  0  0  0  0  0  0  0  0  0  0
    3.3412    3.1241    0.0000 C   0  0  0  0  0  0  0  0  0  0  0  0
    8.4391   -0.8713    0.0000 C   0  0  0  0  0  0  0  0  0  0  0  0
    9.4050   -1.1301    0.0000 C   0  0  0  0  0  0  0  0  0  0  0  0
   10.3709   -1.3889    0.0000 C   0  0  0  0  0  0  0  0  0  0  0  0
    9.1462   -2.0960    0.0000 C   0  0  0  0  0  0  0  0  0  0  0  0
   10.7293   -2.3225    0.0000 C   0  0  0  0  0  0  0  0  0  0  0  0
    8.2126   -2.4544    0.0000 C   0  0  0  0  0  0  0  0  0  0  0  0
   11.7279   -2.2702    0.0000 C   0  0  0  0  0  0  0  0  0  0  0  0
    8.2649   -3.4530    0.0000 C   0  0  0  0  0  0  0  0  0  0  0  0
   11.9867   -1.3042    0.0000 C   0  0  0  0  0  0  0  0  0  0  0  0
    9.2309   -3.7118    0.0000 C   0  0  0  0  0  0  0  0  0  0  0  0
    5.3319    2.2528    0.0000 H   0  0  0  0  0  0  0  0  0  0  0  0
    5.2332    1.1344    0.0000 H   0  0  0  0  0  0  0  0  0  0  0  0
    2.0864    1.0962    0.0000 H   0  0  0  0  0  0  0  0  0  0  0  0
    3.1610   -0.8301    0.0000 H   0  0  0  0  0  0  0  0  0  0  0  0
    7.4675    1.3894    0.0000 H   0  0  0  0  0  0  0  0  0  0  0  0
    6.8776    1.9067    0.0000 H   0  0  0  0  0  0  0  0  0  0  0  0
    6.0555   -0.7644    0.0000 H   0  0  0  0  0  0  0  0  0  0  0  0
    6.8794   -0.7104    0.0000 H   0  0  0  0  0  0  0  0  0  0  0  0
    7.6292    0.8142    0.0000 H   0  0  0  0  0  0  0  0  0  0  0  0
    4.9758    3.6470    0.0000 H   0  0  0  0  0  0  0  0  0  0  0  0
    3.5933    3.6905    0.0000 H   0  0  0  0  0  0  0  0  0  0  0  0
    2.7748    3.3762    0.0000 H   0  0  0  0  0  0  0  0  0  0  0  0
    4.4240    4.3284    0.0000 H   0  0  0  0  0  0  0  0  0  0  0  0
    3.0890    2.5577    0.0000 H   0  0  0  0  0  0  0  0  0  0  0  0
    3.7426    3.7766    0.0000 H   0  0  0  0  0  0  0  0  0  0  0  0
   10.2627   -0.0037    0.0000 H   0  0  0  0  0  0  0  0  0  0  0  0
    7.6926   -2.1167    0.0000 H   0  0  0  0  0  0  0  0  0  0  0  0
   10.3916   -2.8425    0.0000 H   0  0  0  0  0  0  0  0  0  0  0  0
    7.7831   -3.8432    0.0000 H   0  0  0  0  0  0  0  0  0  0  0  0
   12.1181   -2.7520    0.0000 H   0  0  0  0  0  0  0  0  0  0  0  0
    9.4531   -4.2907    0.0000 H   0  0  0  0  0  0  0  0  0  0  0  0
   12.5656   -1.0820    0.0000 H   0  0  0  0  0  0  0  0  0  0  0  0
  1 19  1  0  0  0  0
  1 25  1  0  0  0  0
  2 20  1  0  0  0  0
  2 26  1  0  0  0  0
  3 10  1  0  0  0  0
  3 11  1  0  0  0  0
  4 14  1  0  0  0  0
  4 17  1  0  0  0  0
  5 17  2  0  0  0  0
  6 18  1  0  0  0  0
  6 42  1  0  0  0  0
  7  8  1  0  0  0  0
  7  9  1  0  0  0  0
  7 15  1  0  0  0  0
  7 16  1  0  0  0  0
  8 10  1  0  0  0  0
  8 12  1  0  0  0  0
  8 27  1  0  0  0  0
  9 11  1  0  0  0  0
  9 13  1  0  0  0  0
  9 28  1  0  0  0  0
 10 11  1  0  0  0  0
 10 29  1  0  0  0  0
 11 30  1  0  0  0  0
 12 14  1  0  0  0  0
 12 31  1  0  0  0  0
 12 32  1  0  0  0  0
 13 14  1  0  0  0  0
 13 33  1  0  0  0  0
 13 34  1  0  0  0  0
 14 35  1  0  0  0  0
 15 36  1  0  0  0  0
 15 39  1  0  0  0  0
 15 41  1  0  0  0  0
 16 37  1  0  0  0  0
 16 38  1  0  0  0  0
 16 40  1  0  0  0  0
 17 18  1  0  0  0  0
 18 19  1  0  0  0  0
 18 20  1  0  0  0  0
 19 21  2  0  0  0  0
 20 22  2  0  0  0  0
 21 23  1  0  0  0  0
 21 44  1  0  0  0  0
 22 24  1  0  0  0  0
 22 43  1  0  0  0  0
 23 25  2  0  0  0  0
 23 46  1  0  0  0  0
 24 26  2  0  0  0  0
 24 45  1  0  0  0  0
 25 48  1  0  0  0  0
 26 47  1  0  0  0  0
M  CHG  1   7   1
M  END
> <PUBCHEM_COMPOUND_CID>
60831

> <PUBCHEM_COMPOUND_CANONICALIZED>
1

> <PUBCHEM_CACTVS_COMPLEXITY>
564

> <PUBCHEM_CACTVS_HBOND_ACCEPTOR>
6

> <PUBCHEM_CACTVS_HBOND_DONOR>
1

> <PUBCHEM_CACTVS_ROTATABLE_BOND>
5

> <PUBCHEM_CACTVS_SUBSKEYS>
AAADceB6OABgAAAAAAAAAAAAEgAAAWJEgAAsWAAABgAAAAAB4AAAHgQACAAADHzl0AayCYMABgiMACDSCAIDAIAgCBBIiBlICIgLJjKglRCHcAAmwAG7mAfY6KwOAAAAAAAAAAAAAAAAAAAAAAAAAAAAAA==

> <PUBCHEM_IUPAC_INCHI>
InChI=1S/C19H22NO4S2/c1-20(2)12-9-11(10-13(20)17-16(12)24-17)23-18(21)19(22,14-5-3-7-25-14)15-6-4-8-26-15/h3-8,11-13,16-17,22H,9-10H2,1-2H3/q+1

> <PUBCHEM_IUPAC_INCHIKEY>
LERNTVKEWCAPOY-UHFFFAOYSA-N

> <PUBCHEM_XLOGP3_AA>
2.3

> <PUBCHEM_EXACT_MASS>
392.099025

> <PUBCHEM_MOLECULAR_FORMULA>
C19H22NO4S2+

> <PUBCHEM_MOLECULAR_WEIGHT>
392.51228

> <PUBCHEM_OPENEYE_CAN_SMILES>
C[N+]1(C2CC(CC1C3C2O3)OC(=O)C(C4=CC=CS4)(C5=CC=CS5)O)C

> <PUBCHEM_OPENEYE_ISO_SMILES>
C[N+]1(C2CC(CC1C3C2O3)OC(=O)C(C4=CC=CS4)(C5=CC=CS5)O)C

> <PUBCHEM_CACTVS_TPSA>
116

> <PUBCHEM_MONOISOTOPIC_WEIGHT>
392.099025

> <PUBCHEM_TOTAL_CHARGE>
1

> <PUBCHEM_HEAVY_ATOM_COUNT>
26

> <PUBCHEM_ATOM_DEF_STEREO_COUNT>
0

> <PUBCHEM_ATOM_UDEF_STEREO_COUNT>
4

> <PUBCHEM_BOND_DEF_STEREO_COUNT>
0

> <PUBCHEM_BOND_UDEF_STEREO_COUNT>
0

> <PUBCHEM_ISOTOPIC_ATOM_COUNT>
0

> <PUBCHEM_COMPONENT_COUNT>
1

> <PUBCHEM_CACTVS_TAUTO_COUNT>
1

> <PUBCHEM_COORDINATE_TYPE>
1
5
255

> <PUBCHEM_BONDANNOTATIONS>
1  19  8
1  25  8
19  21  8
2  20  8
2  26  8
20  22  8
21  23  8
22  24  8
23  25  8
24  26  8
10  3  3
11  3  3
8  12  3
9  13  3

$$$$
