60852
  -OEChem-12171208202D

 42 41  0     1  0  0  0  0  0999 V2000
    5.1432   -2.1168    0.0000 P   0  0  0  0  0  0  0  0  0  0  0  0
    3.4112   -3.1168    0.0000 P   0  0  0  0  0  0  0  0  0  0  0  0
    4.7772   -3.4828    0.0000 O   0  0  0  0  0  0  0  0  0  0  0  0
    6.0092   -1.6168    0.0000 O   0  0  0  0  0  0  0  0  0  0  0  0
    5.6432   -2.9828    0.0000 O   0  0  0  0  0  0  0  0  0  0  0  0
    2.5451   -3.6168    0.0000 O   0  0  0  0  0  0  0  0  0  0  0  0
    2.9112   -2.2508    0.0000 O   0  0  0  0  0  0  0  0  0  0  0  0
    4.9696   -1.1320    0.0000 O   0  0  0  0  0  0  0  0  0  0  0  0
    3.4112   -4.1168    0.0000 O   0  0  0  0  0  0  0  0  0  0  0  0
    3.1848   -0.1232    0.0000 N   0  0  3  0  0  0  0  0  0  0  0  0
    4.2772   -2.6168    0.0000 C   0  0  0  0  0  0  0  0  0  0  0  0
    3.7772   -1.7508    0.0000 C   0  0  0  0  0  0  0  0  0  0  0  0
    3.9508   -0.7660    0.0000 C   0  0  0  0  0  0  0  0  0  0  0  0
    3.3584    0.8616    0.0000 C   0  0  0  0  0  0  0  0  0  0  0  0
    2.5924    1.5044    0.0000 C   0  0  0  0  0  0  0  0  0  0  0  0
    2.7660    2.4892    0.0000 C   0  0  0  0  0  0  0  0  0  0  0  0
    2.2451   -0.4652    0.0000 C   0  0  0  0  0  0  0  0  0  0  0  0
    2.0000    3.1320    0.0000 C   0  0  0  0  0  0  0  0  0  0  0  0
    2.1736    4.1168    0.0000 C   0  0  0  0  0  0  0  0  0  0  0  0
    3.2231   -1.4725    0.0000 H   0  0  0  0  0  0  0  0  0  0  0  0
    3.3517   -2.2018    0.0000 H   0  0  0  0  0  0  0  0  0  0  0  0
    4.5334   -0.9780    0.0000 H   0  0  0  0  0  0  0  0  0  0  0  0
    4.2608   -0.2290    0.0000 H   0  0  0  0  0  0  0  0  0  0  0  0
    3.9410    0.6496    0.0000 H   0  0  0  0  0  0  0  0  0  0  0  0
    3.6684    1.3986    0.0000 H   0  0  0  0  0  0  0  0  0  0  0  0
    2.0098    1.7165    0.0000 H   0  0  0  0  0  0  0  0  0  0  0  0
    2.2824    0.9675    0.0000 H   0  0  0  0  0  0  0  0  0  0  0  0
    3.3486    2.2772    0.0000 H   0  0  0  0  0  0  0  0  0  0  0  0
    3.0760    3.0262    0.0000 H   0  0  0  0  0  0  0  0  0  0  0  0
    2.0330    0.1174    0.0000 H   0  0  0  0  0  0  0  0  0  0  0  0
    1.6625   -0.6773    0.0000 H   0  0  0  0  0  0  0  0  0  0  0  0
    2.4572   -1.0478    0.0000 H   0  0  0  0  0  0  0  0  0  0  0  0
    4.7772   -4.1028    0.0000 H   0  0  0  0  0  0  0  0  0  0  0  0
    1.4174    3.3440    0.0000 H   0  0  0  0  0  0  0  0  0  0  0  0
    1.6900    2.5951    0.0000 H   0  0  0  0  0  0  0  0  0  0  0  0
    6.0092   -0.9968    0.0000 H   0  0  0  0  0  0  0  0  0  0  0  0
    2.0082   -3.3068    0.0000 H   0  0  0  0  0  0  0  0  0  0  0  0
    2.2912   -2.2508    0.0000 H   0  0  0  0  0  0  0  0  0  0  0  0
    6.2632   -2.9828    0.0000 H   0  0  0  0  0  0  0  0  0  0  0  0
    2.7842    4.0092    0.0000 H   0  0  0  0  0  0  0  0  0  0  0  0
    2.2813    4.7274    0.0000 H   0  0  0  0  0  0  0  0  0  0  0  0
    1.5631    4.2245    0.0000 H   0  0  0  0  0  0  0  0  0  0  0  0
  1  4  1  0  0  0  0
  1  5  1  0  0  0  0
  1  8  2  0  0  0  0
  1 11  1  0  0  0  0
  2  6  1  0  0  0  0
  2  7  1  0  0  0  0
  2  9  2  0  0  0  0
  2 11  1  0  0  0  0
  3 11  1  0  0  0  0
  3 33  1  0  0  0  0
  4 36  1  0  0  0  0
  5 39  1  0  0  0  0
  6 37  1  0  0  0  0
  7 38  1  0  0  0  0
 10 13  1  0  0  0  0
 10 14  1  0  0  0  0
 10 17  1  0  0  0  0
 11 12  1  0  0  0  0
 12 13  1  0  0  0  0
 12 20  1  0  0  0  0
 12 21  1  0  0  0  0
 13 22  1  0  0  0  0
 13 23  1  0  0  0  0
 14 15  1  0  0  0  0
 14 24  1  0  0  0  0
 14 25  1  0  0  0  0
 15 16  1  0  0  0  0
 15 26  1  0  0  0  0
 15 27  1  0  0  0  0
 16 18  1  0  0  0  0
 16 28  1  0  0  0  0
 16 29  1  0  0  0  0
 17 30  1  0  0  0  0
 17 31  1  0  0  0  0
 17 32  1  0  0  0  0
 18 19  1  0  0  0  0
 18 34  1  0  0  0  0
 18 35  1  0  0  0  0
 19 40  1  0  0  0  0
 19 41  1  0  0  0  0
 19 42  1  0  0  0  0
M  END
> <PUBCHEM_COMPOUND_CID>
60852

> <PUBCHEM_COMPOUND_CANONICALIZED>
1

> <PUBCHEM_CACTVS_COMPLEXITY>
342

> <PUBCHEM_CACTVS_HBOND_ACCEPTOR>
8

> <PUBCHEM_CACTVS_HBOND_DONOR>
5

> <PUBCHEM_CACTVS_ROTATABLE_BOND>
9

> <PUBCHEM_CACTVS_SUBSKEYS>
AAADceByOAMAAAAAAAAAAAAAAAAAAAAAAAAAAAAAAAAAAAAAAAAAHggACCAACADBgAQCAAMAAhAAQAAAAIAAAAAAAAAAAAAIAAAAAAIAgAAEQAACAACAAAAQAAAAAAAAAAAAAAAAAAAAAAAAAAAAAAAAAA==

> <PUBCHEM_IUPAC_OPENEYE_NAME>
[1-hydroxy-3-[methyl(pentyl)amino]-1-phosphono-propyl]phosphonic acid

> <PUBCHEM_IUPAC_CAS_NAME>
[1-hydroxy-3-[methyl(pentyl)amino]-1-phosphonopropyl]phosphonic acid

> <PUBCHEM_IUPAC_NAME>
[1-hydroxy-3-[methyl(pentyl)amino]-1-phosphonopropyl]phosphonic acid

> <PUBCHEM_IUPAC_SYSTEMATIC_NAME>
[3-[methyl(pentyl)amino]-1-oxidanyl-1-phosphono-propyl]phosphonic acid

> <PUBCHEM_IUPAC_TRADITIONAL_NAME>
[3-[amyl(methyl)amino]-1-hydroxy-1-phosphono-propyl]phosphonic acid

> <PUBCHEM_IUPAC_INCHI>
InChI=1S/C9H23NO7P2/c1-3-4-5-7-10(2)8-6-9(11,18(12,13)14)19(15,16)17/h11H,3-8H2,1-2H3,(H2,12,13,14)(H2,15,16,17)

> <PUBCHEM_IUPAC_INCHIKEY>
MPBVHIBUJCELCL-UHFFFAOYSA-N

> <PUBCHEM_XLOGP3_AA>
-4.1

> <PUBCHEM_EXACT_MASS>
319.094975

> <PUBCHEM_MOLECULAR_FORMULA>
C9H23NO7P2

> <PUBCHEM_MOLECULAR_WEIGHT>
319.228944

> <PUBCHEM_OPENEYE_CAN_SMILES>
CCCCCN(C)CCC(O)(P(=O)(O)O)P(=O)(O)O

> <PUBCHEM_OPENEYE_ISO_SMILES>
CCCCCN(C)CCC(O)(P(=O)(O)O)P(=O)(O)O

> <PUBCHEM_CACTVS_TPSA>
139

> <PUBCHEM_MONOISOTOPIC_WEIGHT>
319.094975

> <PUBCHEM_TOTAL_CHARGE>
0

> <PUBCHEM_HEAVY_ATOM_COUNT>
19

> <PUBCHEM_ATOM_DEF_STEREO_COUNT>
0

> <PUBCHEM_ATOM_UDEF_STEREO_COUNT>
0

> <PUBCHEM_BOND_DEF_STEREO_COUNT>
0

> <PUBCHEM_BOND_UDEF_STEREO_COUNT>
0

> <PUBCHEM_ISOTOPIC_ATOM_COUNT>
0

> <PUBCHEM_COMPONENT_COUNT>
1

> <PUBCHEM_CACTVS_TAUTO_COUNT>
1

> <PUBCHEM_COORDINATE_TYPE>
1
5
255

$$$$
