6256
  -OEChem-12171208162D

 31 32  0     1  0  0  0  0  0999 V2000
    6.3301    2.8725    0.0000 F   0  0  0  0  0  0  0  0  0  0  0  0
    5.9641    1.5064    0.0000 F   0  0  0  0  0  0  0  0  0  0  0  0
    4.9641    3.2385    0.0000 F   0  0  0  0  0  0  0  0  0  0  0  0
    4.5411   -1.2153    0.0000 O   0  0  0  0  0  0  0  0  0  0  0  0
    2.6443   -2.9754    0.0000 O   0  0  0  0  0  0  0  0  0  0  0  0
    5.8144   -2.8709    0.0000 O   0  0  0  0  0  0  0  0  0  0  0  0
    2.0000    0.3725    0.0000 O   0  0  0  0  0  0  0  0  0  0  0  0
    3.7320    3.3725    0.0000 O   0  0  0  0  0  0  0  0  0  0  0  0
    3.7320    0.3725    0.0000 N   0  0  0  0  0  0  0  0  0  0  0  0
    2.8660    1.8725    0.0000 N   0  0  0  0  0  0  0  0  0  0  0  0
    3.7320   -0.6275    0.0000 C   0  0  1  0  0  0  0  0  0  0  0  0
    3.2320   -2.1664    0.0000 C   0  0  1  0  0  0  0  0  0  0  0  0
    2.9230   -1.2153    0.0000 C   0  0  0  0  0  0  0  0  0  0  0  0
    4.2320   -2.1664    0.0000 C   0  0  1  0  0  0  0  0  0  0  0  0
    4.8198   -2.9754    0.0000 C   0  0  0  0  0  0  0  0  0  0  0  0
    4.5981    0.8725    0.0000 C   0  0  0  0  0  0  0  0  0  0  0  0
    2.8660    0.8725    0.0000 C   0  0  0  0  0  0  0  0  0  0  0  0
    4.5981    1.8725    0.0000 C   0  0  0  0  0  0  0  0  0  0  0  0
    3.7320    2.3725    0.0000 C   0  0  0  0  0  0  0  0  0  0  0  0
    5.4641    2.3725    0.0000 C   0  0  0  0  0  0  0  0  0  0  0  0
    4.2845   -0.3461    0.0000 H   0  0  0  0  0  0  0  0  0  0  0  0
    3.5135   -2.7188    0.0000 H   0  0  0  0  0  0  0  0  0  0  0  0
    2.6130   -0.6784    0.0000 H   0  0  0  0  0  0  0  0  0  0  0  0
    2.3566   -1.4675    0.0000 H   0  0  0  0  0  0  0  0  0  0  0  0
    4.8444   -2.0694    0.0000 H   0  0  0  0  0  0  0  0  0  0  0  0
    4.2626   -3.2472    0.0000 H   0  0  0  0  0  0  0  0  0  0  0  0
    4.9907   -3.5714    0.0000 H   0  0  0  0  0  0  0  0  0  0  0  0
    5.1350    0.5625    0.0000 H   0  0  0  0  0  0  0  0  0  0  0  0
    2.0277   -2.9106    0.0000 H   0  0  0  0  0  0  0  0  0  0  0  0
    2.3291    2.1825    0.0000 H   0  0  0  0  0  0  0  0  0  0  0  0
    6.1788   -3.3725    0.0000 H   0  0  0  0  0  0  0  0  0  0  0  0
  1 20  1  0  0  0  0
  2 20  1  0  0  0  0
  3 20  1  0  0  0  0
  4 11  1  0  0  0  0
  4 14  1  0  0  0  0
 12  5  1  1  0  0  0
  5 29  1  0  0  0  0
  6 15  1  0  0  0  0
  6 31  1  0  0  0  0
  7 17  2  0  0  0  0
  8 19  2  0  0  0  0
 11  9  1  6  0  0  0
  9 16  1  0  0  0  0
  9 17  1  0  0  0  0
 10 17  1  0  0  0  0
 10 19  1  0  0  0  0
 10 30  1  0  0  0  0
 11 13  1  0  0  0  0
 11 21  1  0  0  0  0
 12 13  1  0  0  0  0
 12 14  1  0  0  0  0
 12 22  1  0  0  0  0
 13 23  1  0  0  0  0
 13 24  1  0  0  0  0
 14 15  1  6  0  0  0
 14 25  1  0  0  0  0
 15 26  1  0  0  0  0
 15 27  1  0  0  0  0
 16 18  2  0  0  0  0
 16 28  1  0  0  0  0
 18 19  1  0  0  0  0
 18 20  1  0  0  0  0
M  END
> <PUBCHEM_COMPOUND_CID>
6256

> <PUBCHEM_COMPOUND_CANONICALIZED>
1

> <PUBCHEM_CACTVS_COMPLEXITY>
464

> <PUBCHEM_CACTVS_HBOND_ACCEPTOR>
8

> <PUBCHEM_CACTVS_HBOND_DONOR>
3

> <PUBCHEM_CACTVS_ROTATABLE_BOND>
2

> <PUBCHEM_CACTVS_SUBSKEYS>
AAADccBzOYAAAAAAAAAAAAAAAAAAASAAAAAgAAAAAAAAAAAAAAAAHwAQCAAADBThgBYBAAPABgCIAgFWUACAAAAAAAAAAAEIAECBEAIAgAAOQAAPByIDAMCwMAIAAAAAAAAAAAAAAAAAAAAAAAAAAAAAAA==

> <PUBCHEM_IUPAC_OPENEYE_NAME>
1-[(2R,4S,5R)-4-hydroxy-5-(hydroxymethyl)tetrahydrofuran-2-yl]-5-(trifluoromethyl)pyrimidine-2,4-dione

> <PUBCHEM_IUPAC_CAS_NAME>
1-[(2R,4S,5R)-4-hydroxy-5-(hydroxymethyl)-2-oxolanyl]-5-(trifluoromethyl)pyrimidine-2,4-dione

> <PUBCHEM_IUPAC_NAME>
1-[(2R,4S,5R)-4-hydroxy-5-(hydroxymethyl)oxolan-2-yl]-5-(trifluoromethyl)pyrimidine-2,4-dione

> <PUBCHEM_IUPAC_SYSTEMATIC_NAME>
1-[(2R,4S,5R)-5-(hydroxymethyl)-4-oxidanyl-oxolan-2-yl]-5-(trifluoromethyl)pyrimidine-2,4-dione

> <PUBCHEM_IUPAC_TRADITIONAL_NAME>
1-[(2R,4S,5R)-4-hydroxy-5-methylol-tetrahydrofuran-2-yl]-5-(trifluoromethyl)pyrimidine-2,4-quinone

> <PUBCHEM_IUPAC_INCHI>
InChI=1S/C10H11F3N2O5/c11-10(12,13)4-2-15(9(19)14-8(4)18)7-1-5(17)6(3-16)20-7/h2,5-7,16-17H,1,3H2,(H,14,18,19)/t5-,6+,7+/m0/s1

> <PUBCHEM_IUPAC_INCHIKEY>
VSQQQLOSPVPRAZ-RRKCRQDMSA-N

> <PUBCHEM_XLOGP3>
-0.5

> <PUBCHEM_EXACT_MASS>
296.062006

> <PUBCHEM_MOLECULAR_FORMULA>
C10H11F3N2O5

> <PUBCHEM_MOLECULAR_WEIGHT>
296.19995

> <PUBCHEM_OPENEYE_CAN_SMILES>
C1C(C(OC1N2C=C(C(=O)NC2=O)C(F)(F)F)CO)O

> <PUBCHEM_OPENEYE_ISO_SMILES>
C1[C@@H]([C@H](O[C@H]1N2C=C(C(=O)NC2=O)C(F)(F)F)CO)O

> <PUBCHEM_CACTVS_TPSA>
99.1

> <PUBCHEM_MONOISOTOPIC_WEIGHT>
296.062006

> <PUBCHEM_TOTAL_CHARGE>
0

> <PUBCHEM_HEAVY_ATOM_COUNT>
20

> <PUBCHEM_ATOM_DEF_STEREO_COUNT>
3

> <PUBCHEM_ATOM_UDEF_STEREO_COUNT>
0

> <PUBCHEM_BOND_DEF_STEREO_COUNT>
0

> <PUBCHEM_BOND_UDEF_STEREO_COUNT>
0

> <PUBCHEM_ISOTOPIC_ATOM_COUNT>
0

> <PUBCHEM_COMPONENT_COUNT>
1

> <PUBCHEM_CACTVS_TAUTO_COUNT>
3

> <PUBCHEM_COORDINATE_TYPE>
1
5
255

> <PUBCHEM_BONDANNOTATIONS>
10  17  8
10  19  8
14  15  6
16  18  8
18  19  8
12  5  5
11  9  6
9  16  8
9  17  8

$$$$
