62819
  -OEChem-12171208212D

132134  0     1  0  0  0  0  0999 V2000
    8.5991   -1.3891    0.0000 S   0  0  0  0  0  0  0  0  0  0  0  0
    9.4651   -1.8891    0.0000 S   0  0  0  0  0  0  0  0  0  0  0  0
    7.5907    1.4655    0.0000 O   0  0  0  0  0  0  0  0  0  0  0  0
    7.7331    0.1109    0.0000 O   0  0  0  0  0  0  0  0  0  0  0  0
    7.7101    5.0691    0.0000 O   0  0  0  0  0  0  0  0  0  0  0  0
    6.8671   -3.3891    0.0000 O   0  0  0  0  0  0  0  0  0  0  0  0
    8.5991   -3.3891    0.0000 O   0  0  0  0  0  0  0  0  0  0  0  0
    6.5663   -2.6834    0.0000 O   0  0  0  0  0  0  0  0  0  0  0  0
    6.0010   -5.8891    0.0000 O   0  0  0  0  0  0  0  0  0  0  0  0
   11.1972   -5.8891    0.0000 O   0  0  0  0  0  0  0  0  0  0  0  0
    3.4030   -4.3891    0.0000 O   0  0  0  0  0  0  0  0  0  0  0  0
   10.1972   -2.8891    0.0000 O   0  0  0  0  0  0  0  0  0  0  0  0
    4.1138    5.3270    0.0000 O   0  0  0  0  0  0  0  0  0  0  0  0
   16.3933   -2.8891    0.0000 O   0  0  0  0  0  0  0  0  0  0  0  0
    6.0010    0.1109    0.0000 N   0  0  0  0  0  0  0  0  0  0  0  0
    6.4317    2.7527    0.0000 N   0  0  0  0  0  0  0  0  0  0  0  0
    6.0010   -1.8891    0.0000 N   0  0  0  0  0  0  0  0  0  0  0  0
    6.0159    4.7090    0.0000 N   0  0  0  0  0  0  0  0  0  0  0  0
    5.1350   -4.3891    0.0000 N   0  0  0  0  0  0  0  0  0  0  0  0
   10.3312   -4.3891    0.0000 N   0  0  0  0  0  0  0  0  0  0  0  0
    7.7331   -4.8891    0.0000 N   0  0  0  0  0  0  0  0  0  0  0  0
   12.0632   -3.3891    0.0000 N   0  0  0  0  0  0  0  0  0  0  0  0
   12.0632   -1.3891    0.0000 N   0  0  0  0  0  0  0  0  0  0  0  0
    2.5369   -2.8891    0.0000 N   0  0  0  0  0  0  0  0  0  0  0  0
    4.6490    6.9743    0.0000 N   0  0  0  0  0  0  0  0  0  0  0  0
    5.8965    1.1054    0.0000 C   0  0  3  0  0  0  0  0  0  0  0  0
    4.9184    1.3133    0.0000 C   0  0  0  0  0  0  0  0  0  0  0  0
    4.4184    0.4473    0.0000 C   0  0  0  0  0  0  0  0  0  0  0  0
    5.0875   -0.2959    0.0000 C   0  0  0  0  0  0  0  0  0  0  0  0
    6.6396    1.7745    0.0000 C   0  0  0  0  0  0  0  0  0  0  0  0
    6.8671   -0.3891    0.0000 C   0  0  0  0  0  0  0  0  0  0  0  0
    6.8671   -1.3891    0.0000 C   0  0  3  0  0  0  0  0  0  0  0  0
    7.1749    3.4218    0.0000 C   0  0  3  0  0  0  0  0  0  0  0  0
    8.1259    3.1128    0.0000 C   0  0  0  0  0  0  0  0  0  0  0  0
    7.7331   -1.8891    0.0000 C   0  0  0  0  0  0  0  0  0  0  0  0
    8.8691    3.7819    0.0000 C   0  0  0  0  0  0  0  0  0  0  0  0
    6.9670    4.3999    0.0000 C   0  0  0  0  0  0  0  0  0  0  0  0
    6.0010   -2.8891    0.0000 C   0  0  0  0  0  0  0  0  0  0  0  0
    5.1350   -3.3891    0.0000 C   0  0  3  0  0  0  0  0  0  0  0  0
    9.4651   -5.8891    0.0000 C   0  0  3  0  0  0  0  0  0  0  0  0
    9.4651   -4.8891    0.0000 C   0  0  3  0  0  0  0  0  0  0  0  0
    9.8201    3.4729    0.0000 C   0  0  0  0  0  0  0  0  0  0  0  0
    8.6612    4.7601    0.0000 C   0  0  0  0  0  0  0  0  0  0  0  0
    6.8671   -4.3891    0.0000 C   0  0  3  0  0  0  0  0  0  0  0  0
    8.5991   -6.3891    0.0000 C   0  0  0  0  0  0  0  0  0  0  0  0
    4.2690   -2.8891    0.0000 C   0  0  0  0  0  0  0  0  0  0  0  0
    8.5991   -4.3891    0.0000 C   0  0  0  0  0  0  0  0  0  0  0  0
   10.3312   -6.3891    0.0000 C   0  0  0  0  0  0  0  0  0  0  0  0
    6.0010   -4.8891    0.0000 C   0  0  0  0  0  0  0  0  0  0  0  0
    6.2243   -3.6231    0.0000 C   0  0  3  0  0  0  0  0  0  0  0  0
   12.0632   -4.3891    0.0000 C   0  0  3  0  0  0  0  0  0  0  0  0
   11.1972   -4.8891    0.0000 C   0  0  0  0  0  0  0  0  0  0  0  0
    5.8080    5.6871    0.0000 C   0  0  0  0  0  0  0  0  0  0  0  0
    8.5991   -7.3891    0.0000 C   0  0  0  0  0  0  0  0  0  0  0  0
   12.9292   -4.8891    0.0000 C   0  0  0  0  0  0  0  0  0  0  0  0
   10.3312   -1.3891    0.0000 C   0  0  0  0  0  0  0  0  0  0  0  0
   11.1972   -1.8891    0.0000 C   0  0  3  0  0  0  0  0  0  0  0  0
    3.4030   -3.3891    0.0000 C   0  0  0  0  0  0  0  0  0  0  0  0
    5.1436   -4.0163    0.0000 C   0  0  0  0  0  0  0  0  0  0  0  0
   11.1972   -2.8891    0.0000 C   0  0  0  0  0  0  0  0  0  0  0  0
   13.7953   -4.3891    0.0000 C   0  0  0  0  0  0  0  0  0  0  0  0
    4.8570    5.9961    0.0000 C   0  0  0  0  0  0  0  0  0  0  0  0
   14.6613   -4.8891    0.0000 C   0  0  0  0  0  0  0  0  0  0  0  0
   13.7953   -3.3891    0.0000 C   0  0  0  0  0  0  0  0  0  0  0  0
   15.5273   -4.3891    0.0000 C   0  0  0  0  0  0  0  0  0  0  0  0
   14.6613   -2.8891    0.0000 C   0  0  0  0  0  0  0  0  0  0  0  0
   15.5273   -3.3891    0.0000 C   0  0  0  0  0  0  0  0  0  0  0  0
    6.4753    0.8832    0.0000 H   0  0  0  0  0  0  0  0  0  0  0  0
    5.1100    1.9030    0.0000 H   0  0  0  0  0  0  0  0  0  0  0  0
    4.3520    1.5655    0.0000 H   0  0  0  0  0  0  0  0  0  0  0  0
    3.9168    0.8117    0.0000 H   0  0  0  0  0  0  0  0  0  0  0  0
    4.0035   -0.0135    0.0000 H   0  0  0  0  0  0  0  0  0  0  0  0
    4.5859   -0.6603    0.0000 H   0  0  0  0  0  0  0  0  0  0  0  0
    5.3975   -0.8328    0.0000 H   0  0  0  0  0  0  0  0  0  0  0  0
    6.3301   -1.0791    0.0000 H   0  0  0  0  0  0  0  0  0  0  0  0
    5.8421    2.9443    0.0000 H   0  0  0  0  0  0  0  0  0  0  0  0
    6.5852    3.6134    0.0000 H   0  0  0  0  0  0  0  0  0  0  0  0
    7.8349    2.5654    0.0000 H   0  0  0  0  0  0  0  0  0  0  0  0
    8.6145    2.7311    0.0000 H   0  0  0  0  0  0  0  0  0  0  0  0
    7.3346   -2.3641    0.0000 H   0  0  0  0  0  0  0  0  0  0  0  0
    8.1316   -2.3641    0.0000 H   0  0  0  0  0  0  0  0  0  0  0  0
    8.2794    3.9735    0.0000 H   0  0  0  0  0  0  0  0  0  0  0  0
    5.4641   -1.5791    0.0000 H   0  0  0  0  0  0  0  0  0  0  0  0
    4.5981   -3.6991    0.0000 H   0  0  0  0  0  0  0  0  0  0  0  0
   10.0021   -5.5791    0.0000 H   0  0  0  0  0  0  0  0  0  0  0  0
   10.0021   -5.1991    0.0000 H   0  0  0  0  0  0  0  0  0  0  0  0
    9.6286    2.8832    0.0000 H   0  0  0  0  0  0  0  0  0  0  0  0
   10.4098    3.2813    0.0000 H   0  0  0  0  0  0  0  0  0  0  0  0
   10.0117    4.0626    0.0000 H   0  0  0  0  0  0  0  0  0  0  0  0
    9.2676    4.8890    0.0000 H   0  0  0  0  0  0  0  0  0  0  0  0
    8.5323    5.3665    0.0000 H   0  0  0  0  0  0  0  0  0  0  0  0
    8.0547    4.6312    0.0000 H   0  0  0  0  0  0  0  0  0  0  0  0
    7.2656   -3.9142    0.0000 H   0  0  0  0  0  0  0  0  0  0  0  0
    8.3871   -5.8065    0.0000 H   0  0  0  0  0  0  0  0  0  0  0  0
    7.9885   -6.4968    0.0000 H   0  0  0  0  0  0  0  0  0  0  0  0
    5.5552    4.2941    0.0000 H   0  0  0  0  0  0  0  0  0  0  0  0
    4.5981   -4.6991    0.0000 H   0  0  0  0  0  0  0  0  0  0  0  0
    4.6675   -2.4142    0.0000 H   0  0  0  0  0  0  0  0  0  0  0  0
    3.8705   -2.4142    0.0000 H   0  0  0  0  0  0  0  0  0  0  0  0
   10.0212   -3.8522    0.0000 H   0  0  0  0  0  0  0  0  0  0  0  0
   10.0212   -6.9261    0.0000 H   0  0  0  0  0  0  0  0  0  0  0  0
   10.8681   -6.6991    0.0000 H   0  0  0  0  0  0  0  0  0  0  0  0
   10.6412   -5.8522    0.0000 H   0  0  0  0  0  0  0  0  0  0  0  0
    7.7331   -5.5091    0.0000 H   0  0  0  0  0  0  0  0  0  0  0  0
    5.7859   -3.1847    0.0000 H   0  0  0  0  0  0  0  0  0  0  0  0
   12.6002   -4.0791    0.0000 H   0  0  0  0  0  0  0  0  0  0  0  0
    6.4276    5.7088    0.0000 H   0  0  0  0  0  0  0  0  0  0  0  0
    5.8943    6.3011    0.0000 H   0  0  0  0  0  0  0  0  0  0  0  0
    7.9791   -7.3891    0.0000 H   0  0  0  0  0  0  0  0  0  0  0  0
    8.5991   -8.0091    0.0000 H   0  0  0  0  0  0  0  0  0  0  0  0
    9.2191   -7.3891    0.0000 H   0  0  0  0  0  0  0  0  0  0  0  0
   12.5307   -5.3641    0.0000 H   0  0  0  0  0  0  0  0  0  0  0  0
   13.3278   -5.3641    0.0000 H   0  0  0  0  0  0  0  0  0  0  0  0
   10.7297   -0.9142    0.0000 H   0  0  0  0  0  0  0  0  0  0  0  0
    9.9326   -0.9142    0.0000 H   0  0  0  0  0  0  0  0  0  0  0  0
   11.1972   -1.2691    0.0000 H   0  0  0  0  0  0  0  0  0  0  0  0
   12.6002   -3.0791    0.0000 H   0  0  0  0  0  0  0  0  0  0  0  0
    4.9316   -3.4337    0.0000 H   0  0  0  0  0  0  0  0  0  0  0  0
    4.5610   -4.2283    0.0000 H   0  0  0  0  0  0  0  0  0  0  0  0
    5.3556   -4.5990    0.0000 H   0  0  0  0  0  0  0  0  0  0  0  0
    7.1769   -2.5757    0.0000 H   0  0  0  0  0  0  0  0  0  0  0  0
   12.0632   -0.7691    0.0000 H   0  0  0  0  0  0  0  0  0  0  0  0
   12.6002   -1.6991    0.0000 H   0  0  0  0  0  0  0  0  0  0  0  0
    2.0000   -3.1991    0.0000 H   0  0  0  0  0  0  0  0  0  0  0  0
    2.5369   -2.2691    0.0000 H   0  0  0  0  0  0  0  0  0  0  0  0
   14.6613   -5.5091    0.0000 H   0  0  0  0  0  0  0  0  0  0  0  0
   13.2583   -3.0791    0.0000 H   0  0  0  0  0  0  0  0  0  0  0  0
    4.0594    7.1659    0.0000 H   0  0  0  0  0  0  0  0  0  0  0  0
    5.1098    7.3891    0.0000 H   0  0  0  0  0  0  0  0  0  0  0  0
   16.0643   -4.6991    0.0000 H   0  0  0  0  0  0  0  0  0  0  0  0
   14.6613   -2.2691    0.0000 H   0  0  0  0  0  0  0  0  0  0  0  0
   16.9303   -3.1991    0.0000 H   0  0  0  0  0  0  0  0  0  0  0  0
  1  2  1  0  0  0  0
  1 35  1  0  0  0  0
  2 56  1  0  0  0  0
  3 30  2  0  0  0  0
  4 31  2  0  0  0  0
  5 37  2  0  0  0  0
  6 38  2  0  0  0  0
  7 47  2  0  0  0  0
  8 50  1  0  0  0  0
  8121  1  0  0  0  0
  9 49  2  0  0  0  0
 10 52  2  0  0  0  0
 11 58  2  0  0  0  0
 12 60  2  0  0  0  0
 13 62  2  0  0  0  0
 14 67  1  0  0  0  0
 14132  1  0  0  0  0
 15 26  1  0  0  0  0
 15 29  1  0  0  0  0
 15 31  1  0  0  0  0
 16 30  1  0  0  0  0
 16 33  1  0  0  0  0
 16 76  1  0  0  0  0
 17 32  1  0  0  0  0
 17 38  1  0  0  0  0
 17 83  1  0  0  0  0
 18 37  1  0  0  0  0
 18 53  1  0  0  0  0
 18 96  1  0  0  0  0
 19 39  1  0  0  0  0
 19 49  1  0  0  0  0
 19 97  1  0  0  0  0
 20 41  1  0  0  0  0
 20 52  1  0  0  0  0
 20100  1  0  0  0  0
 21 44  1  0  0  0  0
 21 47  1  0  0  0  0
 21104  1  0  0  0  0
 22 51  1  0  0  0  0
 22 60  1  0  0  0  0
 22117  1  0  0  0  0
 23 57  1  0  0  0  0
 23122  1  0  0  0  0
 23123  1  0  0  0  0
 24 58  1  0  0  0  0
 24124  1  0  0  0  0
 24125  1  0  0  0  0
 25 62  1  0  0  0  0
 25128  1  0  0  0  0
 25129  1  0  0  0  0
 26 27  1  0  0  0  0
 26 30  1  0  0  0  0
 26 68  1  0  0  0  0
 27 28  1  0  0  0  0
 27 69  1  0  0  0  0
 27 70  1  0  0  0  0
 28 29  1  0  0  0  0
 28 71  1  0  0  0  0
 28 72  1  0  0  0  0
 29 73  1  0  0  0  0
 29 74  1  0  0  0  0
 31 32  1  0  0  0  0
 32 35  1  0  0  0  0
 32 75  1  0  0  0  0
 33 34  1  0  0  0  0
 33 37  1  0  0  0  0
 33 77  1  0  0  0  0
 34 36  1  0  0  0  0
 34 78  1  0  0  0  0
 34 79  1  0  0  0  0
 35 80  1  0  0  0  0
 35 81  1  0  0  0  0
 36 42  1  0  0  0  0
 36 43  1  0  0  0  0
 36 82  1  0  0  0  0
 38 39  1  0  0  0  0
 39 46  1  0  0  0  0
 39 84  1  0  0  0  0
 40 41  1  0  0  0  0
 40 45  1  0  0  0  0
 40 48  1  0  0  0  0
 40 85  1  0  0  0  0
 41 47  1  0  0  0  0
 41 86  1  0  0  0  0
 42 87  1  0  0  0  0
 42 88  1  0  0  0  0
 42 89  1  0  0  0  0
 43 90  1  0  0  0  0
 43 91  1  0  0  0  0
 43 92  1  0  0  0  0
 44 49  1  0  0  0  0
 44 50  1  0  0  0  0
 44 93  1  0  0  0  0
 45 54  1  0  0  0  0
 45 94  1  0  0  0  0
 45 95  1  0  0  0  0
 46 58  1  0  0  0  0
 46 98  1  0  0  0  0
 46 99  1  0  0  0  0
 48101  1  0  0  0  0
 48102  1  0  0  0  0
 48103  1  0  0  0  0
 50 59  1  0  0  0  0
 50105  1  0  0  0  0
 51 52  1  0  0  0  0
 51 55  1  0  0  0  0
 51106  1  0  0  0  0
 53 62  1  0  0  0  0
 53107  1  0  0  0  0
 53108  1  0  0  0  0
 54109  1  0  0  0  0
 54110  1  0  0  0  0
 54111  1  0  0  0  0
 55 61  1  0  0  0  0
 55112  1  0  0  0  0
 55113  1  0  0  0  0
 56 57  1  0  0  0  0
 56114  1  0  0  0  0
 56115  1  0  0  0  0
 57 60  1  0  0  0  0
 57116  1  0  0  0  0
 59118  1  0  0  0  0
 59119  1  0  0  0  0
 59120  1  0  0  0  0
 61 63  2  0  0  0  0
 61 64  1  0  0  0  0
 63 65  1  0  0  0  0
 63126  1  0  0  0  0
 64 66  2  0  0  0  0
 64127  1  0  0  0  0
 65 67  2  0  0  0  0
 65130  1  0  0  0  0
 66 67  1  0  0  0  0
 66131  1  0  0  0  0
M  END
> <PUBCHEM_COMPOUND_CID>
62819

> <PUBCHEM_COMPOUND_CANONICALIZED>
1

> <PUBCHEM_CACTVS_COMPLEXITY>
1790

> <PUBCHEM_CACTVS_HBOND_ACCEPTOR>
15

> <PUBCHEM_CACTVS_HBOND_DONOR>
12

> <PUBCHEM_CACTVS_ROTATABLE_BOND>
15

> <PUBCHEM_CACTVS_SUBSKEYS>
AAADcfB//ABgAAAAAAAAAAAAAAAAAWAAAAAwAAAAAAAAAAABAAAAHgQQCAAADTzl2AayBoPAAgCIAiFSEAACAAAgIAAIiIGOCIgKdj6C0TOUcAAm9hGYmAedyaCOIAAAAAAAAABAAAAAAAAAAAAAAAAAAA==

> <PUBCHEM_IUPAC_OPENEYE_NAME>
1-[19-amino-7-(2-amino-2-oxo-ethyl)-10-(1-hydroxyethyl)-16-[(4-hydroxyphenyl)methyl]-6,9,12,15,18-pentaoxo-13-sec-butyl-1,2-dithia-5,8,11,14,17-pentazacycloicosane-4-carbonyl]-N-[1-[(2-amino-2-oxo-ethyl)carbamoyl]-3-methyl-butyl]pyrrolidine-2-carboxamide

> <PUBCHEM_IUPAC_CAS_NAME>
1-[[19-amino-7-(2-amino-2-oxoethyl)-13-butan-2-yl-10-(1-hydroxyethyl)-16-[(4-hydroxyphenyl)methyl]-6,9,12,15,18-pentaoxo-1,2-dithia-5,8,11,14,17-pentazacycloeicos-4-yl]-oxomethyl]-N-[1-[(2-amino-2-oxoethyl)amino]-4-methyl-1-oxopentan-2-yl]-2-pyrrolidinecarboxamide

> <PUBCHEM_IUPAC_NAME>
1-[19-amino-7-(2-amino-2-oxoethyl)-13-butan-2-yl-10-(1-hydroxyethyl)-16-[(4-hydroxyphenyl)methyl]-6,9,12,15,18-pentaoxo-1,2-dithia-5,8,11,14,17-pentazacycloicosane-4-carbonyl]-N-[1-[(2-amino-2-oxoethyl)amino]-4-methyl-1-oxopentan-2-yl]pyrrolidine-2-carboxamide

> <PUBCHEM_IUPAC_SYSTEMATIC_NAME>
1-[[19-azanyl-7-(2-azanyl-2-oxidanylidene-ethyl)-13-butan-2-yl-10-(1-hydroxyethyl)-16-[(4-hydroxyphenyl)methyl]-6,9,12,15,18-pentakis(oxidanylidene)-1,2-dithia-5,8,11,14,17-pentazacycloicos-4-yl]carbonyl]-N-[1-[(2-azanyl-2-oxidanylidene-ethyl)amino]-4-methyl-1-oxidanylidene-pentan-2-yl]pyrrolidine-2-carboxamide

> <PUBCHEM_IUPAC_TRADITIONAL_NAME>
1-[19-amino-7-(2-amino-2-keto-ethyl)-16-(4-hydroxybenzyl)-10-(1-hydroxyethyl)-6,9,12,15,18-pentaketo-13-sec-butyl-1,2-dithia-5,8,11,14,17-pentazacycloeicosane-4-carbonyl]-N-[1-[(2-amino-2-keto-ethyl)carbamoyl]-3-methyl-butyl]pyrrolidine-2-carboxamide

> <PUBCHEM_IUPAC_INCHI>
InChI=1S/C42H65N11O12S2/c1-6-21(4)33-40(63)52-34(22(5)54)41(64)49-28(16-31(44)56)37(60)50-29(19-67-66-18-25(43)35(58)47-27(38(61)51-33)15-23-9-11-24(55)12-10-23)42(65)53-13-7-8-30(53)39(62)48-26(14-20(2)3)36(59)46-17-32(45)57/h9-12,20-22,25-30,33-34,54-55H,6-8,13-19,43H2,1-5H3,(H2,44,56)(H2,45,57)(H,46,59)(H,47,58)(H,48,62)(H,49,64)(H,50,60)(H,51,61)(H,52,63)

> <PUBCHEM_IUPAC_INCHIKEY>
ZDRRIRUAESZNIH-UHFFFAOYSA-N

> <PUBCHEM_XLOGP3_AA>
-1.5

> <PUBCHEM_EXACT_MASS>
979.425559

> <PUBCHEM_MOLECULAR_FORMULA>
C42H65N11O12S2

> <PUBCHEM_MOLECULAR_WEIGHT>
980.162

> <PUBCHEM_OPENEYE_CAN_SMILES>
CCC(C)C1C(=O)NC(C(=O)NC(C(=O)NC(CSSCC(C(=O)NC(C(=O)N1)CC2=CC=C(C=C2)O)N)C(=O)N3CCCC3C(=O)NC(CC(C)C)C(=O)NCC(=O)N)CC(=O)N)C(C)O

> <PUBCHEM_OPENEYE_ISO_SMILES>
CCC(C)C1C(=O)NC(C(=O)NC(C(=O)NC(CSSCC(C(=O)NC(C(=O)N1)CC2=CC=C(C=C2)O)N)C(=O)N3CCCC3C(=O)NC(CC(C)C)C(=O)NCC(=O)N)CC(=O)N)C(C)O

> <PUBCHEM_CACTVS_TPSA>
427

> <PUBCHEM_MONOISOTOPIC_WEIGHT>
979.425559

> <PUBCHEM_TOTAL_CHARGE>
0

> <PUBCHEM_HEAVY_ATOM_COUNT>
67

> <PUBCHEM_ATOM_DEF_STEREO_COUNT>
0

> <PUBCHEM_ATOM_UDEF_STEREO_COUNT>
10

> <PUBCHEM_BOND_DEF_STEREO_COUNT>
0

> <PUBCHEM_BOND_UDEF_STEREO_COUNT>
0

> <PUBCHEM_ISOTOPIC_ATOM_COUNT>
0

> <PUBCHEM_COMPONENT_COUNT>
1

> <PUBCHEM_CACTVS_TAUTO_COUNT>
1001

> <PUBCHEM_COORDINATE_TYPE>
1
5
255

> <PUBCHEM_BONDANNOTATIONS>
57  23  3
26  30  3
32  31  3
33  34  3
39  46  3
40  48  3
41  47  3
44  49  3
51  55  3
61  63  8
61  64  8
63  65  8
64  66  8
65  67  8
66  67  8
50  8  3

$$$$
