62816
  -OEChem-12171208212D

 46 45  0     1  0  0  0  0  0999 V2000
    4.0758    0.9749    0.0000 Cl  0  0  0  0  0  0  0  0  0  0  0  0
    6.3078    1.8410    0.0000 O   0  0  0  0  0  0  0  0  0  0  0  0
    5.7331    4.4610    0.0000 N   0  0  0  0  0  0  0  0  0  0  0  0
    8.3312    4.9610    0.0000 N   0  0  0  0  0  0  0  0  0  0  0  0
    3.1350    4.9610    0.0000 N   0  0  0  0  0  0  0  0  0  0  0  0
   10.9292    4.4610    0.0000 N   0  0  0  0  0  0  0  0  0  0  0  0
    0.5369    4.4610    0.0000 N   0  0  0  0  0  0  0  0  0  0  0  0
    5.8078    0.9749    0.0000 C   0  0  3  0  0  0  0  0  0  0  0  0
    6.8078    0.9749    0.0000 C   0  0  0  0  0  0  0  0  0  0  0  0
    4.9418    0.4749    0.0000 C   0  0  0  0  0  0  0  0  0  0  0  0
    6.5991    4.9610    0.0000 C   0  0  0  0  0  0  0  0  0  0  0  0
    4.8671    4.9610    0.0000 C   0  0  0  0  0  0  0  0  0  0  0  0
    7.4651    4.4610    0.0000 C   0  0  0  0  0  0  0  0  0  0  0  0
    4.0010    4.4610    0.0000 C   0  0  0  0  0  0  0  0  0  0  0  0
    9.1972    4.4610    0.0000 C   0  0  0  0  0  0  0  0  0  0  0  0
    2.2690    4.4610    0.0000 C   0  0  0  0  0  0  0  0  0  0  0  0
   10.0632    4.9610    0.0000 C   0  0  0  0  0  0  0  0  0  0  0  0
    1.4030    4.9610    0.0000 C   0  0  0  0  0  0  0  0  0  0  0  0
    5.3694    1.4134    0.0000 H   0  0  0  0  0  0  0  0  0  0  0  0
    6.9155    0.3644    0.0000 H   0  0  0  0  0  0  0  0  0  0  0  0
    7.3904    1.1870    0.0000 H   0  0  0  0  0  0  0  0  0  0  0  0
    4.5432    0.0000    0.0000 H   0  0  0  0  0  0  0  0  0  0  0  0
    5.3403    0.0000    0.0000 H   0  0  0  0  0  0  0  0  0  0  0  0
    6.9976    5.4359    0.0000 H   0  0  0  0  0  0  0  0  0  0  0  0
    5.2656    5.4359    0.0000 H   0  0  0  0  0  0  0  0  0  0  0  0
    4.4685    5.4359    0.0000 H   0  0  0  0  0  0  0  0  0  0  0  0
    6.2006    5.4359    0.0000 H   0  0  0  0  0  0  0  0  0  0  0  0
    3.6025    3.9860    0.0000 H   0  0  0  0  0  0  0  0  0  0  0  0
    4.3996    3.9860    0.0000 H   0  0  0  0  0  0  0  0  0  0  0  0
    7.0666    3.9860    0.0000 H   0  0  0  0  0  0  0  0  0  0  0  0
    7.8637    3.9860    0.0000 H   0  0  0  0  0  0  0  0  0  0  0  0
    5.7331    3.8410    0.0000 H   0  0  0  0  0  0  0  0  0  0  0  0
    8.3312    5.5810    0.0000 H   0  0  0  0  0  0  0  0  0  0  0  0
    3.1350    5.5810    0.0000 H   0  0  0  0  0  0  0  0  0  0  0  0
    8.7987    3.9860    0.0000 H   0  0  0  0  0  0  0  0  0  0  0  0
    9.5957    3.9860    0.0000 H   0  0  0  0  0  0  0  0  0  0  0  0
    1.8705    3.9860    0.0000 H   0  0  0  0  0  0  0  0  0  0  0  0
    2.6675    3.9860    0.0000 H   0  0  0  0  0  0  0  0  0  0  0  0
   10.4617    5.4359    0.0000 H   0  0  0  0  0  0  0  0  0  0  0  0
    9.6647    5.4359    0.0000 H   0  0  0  0  0  0  0  0  0  0  0  0
    1.8015    5.4359    0.0000 H   0  0  0  0  0  0  0  0  0  0  0  0
    1.0044    5.4359    0.0000 H   0  0  0  0  0  0  0  0  0  0  0  0
    0.0000    4.7710    0.0000 H   0  0  0  0  0  0  0  0  0  0  0  0
    0.5369    3.8410    0.0000 H   0  0  0  0  0  0  0  0  0  0  0  0
   11.4662    4.7710    0.0000 H   0  0  0  0  0  0  0  0  0  0  0  0
   10.9292    3.8410    0.0000 H   0  0  0  0  0  0  0  0  0  0  0  0
  1 10  1  0  0  0  0
  2  8  1  0  0  0  0
  2  9  1  0  0  0  0
  3 11  1  0  0  0  0
  3 12  1  0  0  0  0
  3 32  1  0  0  0  0
  4 13  1  0  0  0  0
  4 15  1  0  0  0  0
  4 33  1  0  0  0  0
  5 14  1  0  0  0  0
  5 16  1  0  0  0  0
  5 34  1  0  0  0  0
  6 17  1  0  0  0  0
  6 45  1  0  0  0  0
  6 46  1  0  0  0  0
  7 18  1  0  0  0  0
  7 43  1  0  0  0  0
  7 44  1  0  0  0  0
  8  9  1  0  0  0  0
  8 10  1  0  0  0  0
  8 19  1  0  0  0  0
  9 20  1  0  0  0  0
  9 21  1  0  0  0  0
 10 22  1  0  0  0  0
 10 23  1  0  0  0  0
 11 13  1  0  0  0  0
 11 24  1  0  0  0  0
 11 27  1  0  0  0  0
 12 14  1  0  0  0  0
 12 25  1  0  0  0  0
 12 26  1  0  0  0  0
 13 30  1  0  0  0  0
 13 31  1  0  0  0  0
 14 28  1  0  0  0  0
 14 29  1  0  0  0  0
 15 17  1  0  0  0  0
 15 35  1  0  0  0  0
 15 36  1  0  0  0  0
 16 18  1  0  0  0  0
 16 37  1  0  0  0  0
 16 38  1  0  0  0  0
 17 39  1  0  0  0  0
 17 40  1  0  0  0  0
 18 41  1  0  0  0  0
 18 42  1  0  0  0  0
M  END
> <PUBCHEM_COMPOUND_CID>
62816

> <PUBCHEM_COMPOUND_CANONICALIZED>
1

> <PUBCHEM_CACTVS_COMPLEXITY>
117

> <PUBCHEM_CACTVS_HBOND_ACCEPTOR>
6

> <PUBCHEM_CACTVS_HBOND_DONOR>
5

> <PUBCHEM_CACTVS_ROTATABLE_BOND>
11

> <PUBCHEM_CACTVS_SUBSKEYS>
AAADceBzoAAEAAAAAAAAAAAAEgAAAAAAAAAAAAAAAAAAAAAAAAAAHgIQAAAACBfhgEYAAALABAAAAAAAAAAAAAAAAAAAAIAIAwAAQAAAAAAQAAAAEACAAAAAAAAAAAAAAAAAAAAAAAAAAAAAAAAAAAAAAA==

> <PUBCHEM_IUPAC_OPENEYE_NAME>
N'-[2-[2-(2-aminoethylamino)ethylamino]ethyl]ethane-1,2-diamine;2-(chloromethyl)oxirane

> <PUBCHEM_IUPAC_CAS_NAME>
N'-[2-[2-(2-aminoethylamino)ethylamino]ethyl]ethane-1,2-diamine;2-(chloromethyl)oxirane

> <PUBCHEM_IUPAC_NAME>
N'-[2-[2-(2-aminoethylamino)ethylamino]ethyl]ethane-1,2-diamine;2-(chloromethyl)oxirane

> <PUBCHEM_IUPAC_SYSTEMATIC_NAME>
N'-[2-[2-(2-azanylethylamino)ethylamino]ethyl]ethane-1,2-diamine;2-(chloromethyl)oxirane

> <PUBCHEM_IUPAC_TRADITIONAL_NAME>
bis[2-(2-aminoethylamino)ethyl]amine;2-(chloromethyl)oxirane

> <PUBCHEM_IUPAC_INCHI>
InChI=1S/C8H23N5.C3H5ClO/c9-1-3-11-5-7-13-8-6-12-4-2-10;4-1-3-2-5-3/h11-13H,1-10H2;3H,1-2H2

> <PUBCHEM_IUPAC_INCHIKEY>
GMRWGQCZJGVHKL-UHFFFAOYSA-N

> <PUBCHEM_EXACT_MASS>
281.198238

> <PUBCHEM_MOLECULAR_FORMULA>
C11H28ClN5O

> <PUBCHEM_MOLECULAR_WEIGHT>
281.82592

> <PUBCHEM_OPENEYE_CAN_SMILES>
C1C(O1)CCl.C(CNCCNCCNCCN)N

> <PUBCHEM_OPENEYE_ISO_SMILES>
C1C(O1)CCl.C(CNCCNCCNCCN)N

> <PUBCHEM_CACTVS_TPSA>
101

> <PUBCHEM_MONOISOTOPIC_WEIGHT>
281.198238

> <PUBCHEM_TOTAL_CHARGE>
0

> <PUBCHEM_HEAVY_ATOM_COUNT>
18

> <PUBCHEM_ATOM_DEF_STEREO_COUNT>
0

> <PUBCHEM_ATOM_UDEF_STEREO_COUNT>
1

> <PUBCHEM_BOND_DEF_STEREO_COUNT>
0

> <PUBCHEM_BOND_UDEF_STEREO_COUNT>
0

> <PUBCHEM_ISOTOPIC_ATOM_COUNT>
0

> <PUBCHEM_COMPONENT_COUNT>
2

> <PUBCHEM_CACTVS_TAUTO_COUNT>
1

> <PUBCHEM_COORDINATE_TYPE>
1
5
255

> <PUBCHEM_BONDANNOTATIONS>
8  10  3

$$$$
