6323497
  -OEChem-12171208262D

127132  0     1  0  0  0  0  0999 V2000
    7.1311   -3.9699    0.0000 O   0  0  0  0  0  0  0  0  0  0  0  0
    4.9774   -1.6350    0.0000 O   0  0  0  0  0  0  0  0  0  0  0  0
    2.9106   -4.1361    0.0000 O   0  0  0  0  0  0  0  0  0  0  0  0
    8.8592   -4.0875    0.0000 O   0  0  0  0  0  0  0  0  0  0  0  0
   11.2925   -2.7837    0.0000 O   0  0  0  0  0  0  0  0  0  0  0  0
   11.7655   -0.8782    0.0000 O   0  0  0  0  0  0  0  0  0  0  0  0
    5.8260   -5.1087    0.0000 O   0  0  0  0  0  0  0  0  0  0  0  0
    9.2743   -1.2358    0.0000 O   0  0  0  0  0  0  0  0  0  0  0  0
    8.4141    2.3234    0.0000 O   0  0  0  0  0  0  0  0  0  0  0  0
   10.6824   -2.6335    0.0000 O   0  0  0  0  0  0  0  0  0  0  0  0
   10.1625    2.2888    0.0000 O   0  0  0  0  0  0  0  0  0  0  0  0
    6.0575   -1.3582    0.0000 O   0  0  0  0  0  0  0  0  0  0  0  0
    6.1175    3.1288    0.0000 N   0  0  0  0  0  0  0  0  0  0  0  0
    6.1252    1.1288    0.0000 N   0  0  0  0  0  0  0  0  0  0  0  0
    6.1290    0.1288    0.0000 N   0  0  0  0  0  0  0  0  0  0  0  0
    6.5985    0.3696    0.0000 N   0  0  0  0  0  0  0  0  0  0  0  0
    6.1136    4.1288    0.0000 C   0  0  0  0  0  0  0  0  0  0  0  0
    6.9204    4.7197    0.0000 C   0  0  0  0  0  0  0  0  0  0  0  0
    5.3023    4.7134    0.0000 C   0  0  0  0  0  0  0  0  0  0  0  0
    5.6077    5.6657    0.0000 C   0  0  0  0  0  0  0  0  0  0  0  0
    6.6077    5.6695    0.0000 C   0  0  0  0  0  0  0  0  0  0  0  0
    5.2534    2.6254    0.0000 C   0  0  0  0  0  0  0  0  0  0  0  0
    6.9854    2.6321    0.0000 C   0  0  0  0  0  0  0  0  0  0  0  0
    5.2572    1.6254    0.0000 C   0  0  0  0  0  0  0  0  0  0  0  0
    6.9893    1.6321    0.0000 C   0  0  0  0  0  0  0  0  0  0  0  0
    6.1084   -2.4310    0.0000 C   0  0  2  0  0  0  0  0  0  0  0  0
    5.1271   -2.6237    0.0000 C   0  0  1  0  0  0  0  0  0  0  0  0
    6.9385   -2.9887    0.0000 C   0  0  1  0  0  0  0  0  0  0  0  0
    4.5695   -3.4538    0.0000 C   0  0  1  0  0  0  0  0  0  0  0  0
    7.8364   -2.5486    0.0000 C   0  0  1  0  0  0  0  0  0  0  0  0
    3.5718   -3.3859    0.0000 C   0  0  2  0  0  0  0  0  0  0  0  0
    7.0803   -2.1958    0.0000 C   0  0  0  0  0  0  0  0  0  0  0  0
    8.6665   -3.1062    0.0000 C   0  0  2  0  0  0  0  0  0  0  0  0
    2.9143   -2.6324    0.0000 C   0  0  1  0  0  0  0  0  0  0  0  0
    4.4149   -4.4418    0.0000 C   0  0  0  0  0  0  0  0  0  0  0  0
    8.8177   -2.3559    0.0000 C   0  0  0  0  0  0  0  0  0  0  0  0
    2.0000   -2.2274    0.0000 C   0  0  0  0  0  0  0  0  0  0  0  0
    9.5645   -2.6662    0.0000 C   0  0  0  0  0  0  0  0  0  0  0  0
    3.2381   -1.6863    0.0000 C   0  0  0  0  0  0  0  0  0  0  0  0
    6.6324   -0.7353    0.0000 C   0  0  0  0  0  0  0  0  0  0  0  0
    6.8073   -4.9160    0.0000 C   0  0  0  0  0  0  0  0  0  0  0  0
    7.4965   -0.2320    0.0000 C   0  0  0  0  0  0  0  0  0  0  0  0
   10.3946   -3.2238    0.0000 C   0  0  0  0  0  0  0  0  0  0  0  0
   11.3604   -1.7860    0.0000 C   0  0  1  0  0  0  0  0  0  0  0  0
    4.1361   -1.2462    0.0000 C   0  0  0  0  0  0  0  0  0  0  0  0
    9.2965   -0.2112    0.0000 C   0  0  0  0  0  0  0  0  0  0  0  0
    8.4025   -0.7458    0.0000 C   0  0  0  0  0  0  0  0  0  0  0  0
    7.4965    0.8097    0.0000 C   0  0  0  0  0  0  0  0  0  0  0  0
   10.1625   -0.7112    0.0000 C   0  0  0  0  0  0  0  0  0  0  0  0
    9.8053   -4.4113    0.0000 C   0  0  0  0  0  0  0  0  0  0  0  0
    9.2965    0.7888    0.0000 C   0  0  0  0  0  0  0  0  0  0  0  0
   11.0285   -0.2112    0.0000 C   0  0  0  0  0  0  0  0  0  0  0  0
   10.3717   -1.6830    0.0000 C   0  0  0  0  0  0  0  0  0  0  0  0
    7.4649   -5.6695    0.0000 C   0  0  0  0  0  0  0  0  0  0  0  0
    8.4025    1.3235    0.0000 C   0  0  0  0  0  0  0  0  0  0  0  0
   11.0285    0.7888    0.0000 C   0  0  0  0  0  0  0  0  0  0  0  0
   10.1625    1.2888    0.0000 C   0  0  0  0  0  0  0  0  0  0  0  0
    4.2039   -0.2485    0.0000 C   0  0  0  0  0  0  0  0  0  0  0  0
   12.3308   -2.0274    0.0000 C   0  0  0  0  0  0  0  0  0  0  0  0
    5.1019    0.1915    0.0000 C   0  0  0  0  0  0  0  0  0  0  0  0
    5.9320   -0.3661    0.0000 C   0  0  0  0  0  0  0  0  0  0  0  0
   11.8945    1.2888    0.0000 C   0  0  0  0  0  0  0  0  0  0  0  0
    4.8244    1.1523    0.0000 C   0  0  0  0  0  0  0  0  0  0  0  0
    6.6671    3.8494    0.0000 H   0  0  0  0  0  0  0  0  0  0  0  0
    7.2324    4.1839    0.0000 H   0  0  0  0  0  0  0  0  0  0  0  0
    4.7350    4.9634    0.0000 H   0  0  0  0  0  0  0  0  0  0  0  0
    4.9944    4.1753    0.0000 H   0  0  0  0  0  0  0  0  0  0  0  0
    7.4858    4.9740    0.0000 H   0  0  0  0  0  0  0  0  0  0  0  0
    7.2136    5.8008    0.0000 H   0  0  0  0  0  0  0  0  0  0  0  0
    6.5405    6.2859    0.0000 H   0  0  0  0  0  0  0  0  0  0  0  0
    5.6701    6.2825    0.0000 H   0  0  0  0  0  0  0  0  0  0  0  0
    5.0008    5.7922    0.0000 H   0  0  0  0  0  0  0  0  0  0  0  0
    5.0391    3.2072    0.0000 H   0  0  0  0  0  0  0  0  0  0  0  0
    4.6432    2.5154    0.0000 H   0  0  0  0  0  0  0  0  0  0  0  0
    7.5964    2.5268    0.0000 H   0  0  0  0  0  0  0  0  0  0  0  0
    7.1952    3.2155    0.0000 H   0  0  0  0  0  0  0  0  0  0  0  0
    4.6462    1.7307    0.0000 H   0  0  0  0  0  0  0  0  0  0  0  0
    5.0474    1.0420    0.0000 H   0  0  0  0  0  0  0  0  0  0  0  0
    7.2036    1.0503    0.0000 H   0  0  0  0  0  0  0  0  0  0  0  0
    7.5994    1.7421    0.0000 H   0  0  0  0  0  0  0  0  0  0  0  0
    5.7652   -1.9147    0.0000 H   0  0  0  0  0  0  0  0  0  0  0  0
    4.5193   -2.5012    0.0000 H   0  0  0  0  0  0  0  0  0  0  0  0
    6.4714   -3.3963    0.0000 H   0  0  0  0  0  0  0  0  0  0  0  0
    4.9771   -3.9209    0.0000 H   0  0  0  0  0  0  0  0  0  0  0  0
    7.7170   -1.9402    0.0000 H   0  0  0  0  0  0  0  0  0  0  0  0
    3.6647   -3.9989    0.0000 H   0  0  0  0  0  0  0  0  0  0  0  0
    7.2262   -2.7984    0.0000 H   0  0  0  0  0  0  0  0  0  0  0  0
    7.6829   -2.0499    0.0000 H   0  0  0  0  0  0  0  0  0  0  0  0
    6.9344   -1.5932    0.0000 H   0  0  0  0  0  0  0  0  0  0  0  0
    8.2773   -3.5888    0.0000 H   0  0  0  0  0  0  0  0  0  0  0  0
    2.3576   -2.9053    0.0000 H   0  0  0  0  0  0  0  0  0  0  0  0
    3.8024   -4.3459    0.0000 H   0  0  0  0  0  0  0  0  0  0  0  0
    4.3191   -5.0543    0.0000 H   0  0  0  0  0  0  0  0  0  0  0  0
    5.0275   -4.5376    0.0000 H   0  0  0  0  0  0  0  0  0  0  0  0
    5.6526    0.5256    0.0000 H   0  0  0  0  0  0  0  0  0  0  0  0
    8.9372   -2.9643    0.0000 H   0  0  0  0  0  0  0  0  0  0  0  0
    9.4261   -2.2365    0.0000 H   0  0  0  0  0  0  0  0  0  0  0  0
    8.6982   -1.7476    0.0000 H   0  0  0  0  0  0  0  0  0  0  0  0
    5.4619   -1.2481    0.0000 H   0  0  0  0  0  0  0  0  0  0  0  0
    2.2511   -1.6606    0.0000 H   0  0  0  0  0  0  0  0  0  0  0  0
    1.4331   -1.9763    0.0000 H   0  0  0  0  0  0  0  0  0  0  0  0
    1.7489   -2.7943    0.0000 H   0  0  0  0  0  0  0  0  0  0  0  0
    9.6066   -2.0476    0.0000 H   0  0  0  0  0  0  0  0  0  0  0  0
    2.3028   -4.0136    0.0000 H   0  0  0  0  0  0  0  0  0  0  0  0
    2.7730   -1.2764    0.0000 H   0  0  0  0  0  0  0  0  0  0  0  0
    6.9444   -1.2710    0.0000 H   0  0  0  0  0  0  0  0  0  0  0  0
   10.3525   -3.8424    0.0000 H   0  0  0  0  0  0  0  0  0  0  0  0
    4.3081   -1.8419    0.0000 H   0  0  0  0  0  0  0  0  0  0  0  0
    9.6046   -4.9979    0.0000 H   0  0  0  0  0  0  0  0  0  0  0  0
   10.3919   -4.6120    0.0000 H   0  0  0  0  0  0  0  0  0  0  0  0
   10.0061   -3.8247    0.0000 H   0  0  0  0  0  0  0  0  0  0  0  0
    6.9978   -6.0772    0.0000 H   0  0  0  0  0  0  0  0  0  0  0  0
    7.8726   -6.1366    0.0000 H   0  0  0  0  0  0  0  0  0  0  0  0
    7.9320   -5.2618    0.0000 H   0  0  0  0  0  0  0  0  0  0  0  0
    3.6893    0.0972    0.0000 H   0  0  0  0  0  0  0  0  0  0  0  0
   12.1812   -2.6291    0.0000 H   0  0  0  0  0  0  0  0  0  0  0  0
   12.9325   -2.1771    0.0000 H   0  0  0  0  0  0  0  0  0  0  0  0
   12.4805   -1.4258    0.0000 H   0  0  0  0  0  0  0  0  0  0  0  0
    6.8302    0.9447    0.0000 H   0  0  0  0  0  0  0  0  0  0  0  0
   12.2045    0.7519    0.0000 H   0  0  0  0  0  0  0  0  0  0  0  0
   12.4315    1.5988    0.0000 H   0  0  0  0  0  0  0  0  0  0  0  0
   11.5845    1.8258    0.0000 H   0  0  0  0  0  0  0  0  0  0  0  0
    8.9546    2.6272    0.0000 H   0  0  0  0  0  0  0  0  0  0  0  0
    5.4201    1.3243    0.0000 H   0  0  0  0  0  0  0  0  0  0  0  0
    4.6524    1.7479    0.0000 H   0  0  0  0  0  0  0  0  0  0  0  0
    4.2288    0.9802    0.0000 H   0  0  0  0  0  0  0  0  0  0  0  0
   10.6994    2.5988    0.0000 H   0  0  0  0  0  0  0  0  0  0  0  0
 28  1  1  1  0  0  0
  1 41  1  0  0  0  0
 27  2  1  1  0  0  0
  2 99  1  0  0  0  0
 31  3  1  1  0  0  0
  3104  1  0  0  0  0
 33  4  1  6  0  0  0
  4 50  1  0  0  0  0
  5 43  1  0  0  0  0
  5 44  1  0  0  0  0
  6 44  1  0  0  0  0
  6 52  1  0  0  0  0
  7 41  2  0  0  0  0
  8 47  2  0  0  0  0
  9 55  1  0  0  0  0
  9123  1  0  0  0  0
 10 53  2  0  0  0  0
 11 57  1  0  0  0  0
 11127  1  0  0  0  0
 12 61  2  0  0  0  0
 13 17  1  0  0  0  0
 13 22  1  0  0  0  0
 13 23  1  0  0  0  0
 14 15  1  0  0  0  0
 14 24  1  0  0  0  0
 14 25  1  0  0  0  0
 15 40  1  0  0  0  0
 15 95  1  0  0  0  0
 16 48  1  0  0  0  0
 16 61  1  0  0  0  0
 16119  1  0  0  0  0
 17 18  1  0  0  0  0
 17 19  1  0  0  0  0
 17 64  1  0  0  0  0
 18 21  1  0  0  0  0
 18 65  1  0  0  0  0
 18 68  1  0  0  0  0
 19 20  1  0  0  0  0
 19 66  1  0  0  0  0
 19 67  1  0  0  0  0
 20 21  1  0  0  0  0
 20 71  1  0  0  0  0
 20 72  1  0  0  0  0
 21 69  1  0  0  0  0
 21 70  1  0  0  0  0
 22 24  1  0  0  0  0
 22 73  1  0  0  0  0
 22 74  1  0  0  0  0
 23 25  1  0  0  0  0
 23 75  1  0  0  0  0
 23 76  1  0  0  0  0
 24 77  1  0  0  0  0
 24 78  1  0  0  0  0
 25 79  1  0  0  0  0
 25 80  1  0  0  0  0
 26 27  1  0  0  0  0
 26 28  1  0  0  0  0
 26 32  1  1  0  0  0
 26 81  1  0  0  0  0
 27 29  1  0  0  0  0
 27 82  1  0  0  0  0
 28 30  1  0  0  0  0
 28 83  1  0  0  0  0
 29 31  1  0  0  0  0
 29 35  1  6  0  0  0
 29 84  1  0  0  0  0
 30 33  1  0  0  0  0
 30 36  1  6  0  0  0
 30 85  1  0  0  0  0
 31 34  1  0  0  0  0
 31 86  1  0  0  0  0
 32 87  1  0  0  0  0
 32 88  1  0  0  0  0
 32 89  1  0  0  0  0
 33 38  1  0  0  0  0
 33 90  1  0  0  0  0
 34 37  1  1  0  0  0
 34 39  1  0  0  0  0
 34 91  1  0  0  0  0
 35 92  1  0  0  0  0
 35 93  1  0  0  0  0
 35 94  1  0  0  0  0
 36 96  1  0  0  0  0
 36 97  1  0  0  0  0
 36 98  1  0  0  0  0
 37100  1  0  0  0  0
 37101  1  0  0  0  0
 37102  1  0  0  0  0
 38 43  2  0  0  0  0
 38103  1  0  0  0  0
 39 45  2  0  0  0  0
 39105  1  0  0  0  0
 40 42  2  0  0  0  0
 40106  1  0  0  0  0
 41 54  1  0  0  0  0
 42 47  1  0  0  0  0
 42 48  1  0  0  0  0
 43107  1  0  0  0  0
 44 53  1  0  0  0  0
 44 59  1  1  0  0  0
 45 58  1  0  0  0  0
 45108  1  0  0  0  0
 46 47  1  0  0  0  0
 46 49  1  0  0  0  0
 46 51  2  0  0  0  0
 48 55  2  0  0  0  0
 49 52  2  0  0  0  0
 49 53  1  0  0  0  0
 50109  1  0  0  0  0
 50110  1  0  0  0  0
 50111  1  0  0  0  0
 51 55  1  0  0  0  0
 51 57  1  0  0  0  0
 52 56  1  0  0  0  0
 54112  1  0  0  0  0
 54113  1  0  0  0  0
 54114  1  0  0  0  0
 56 57  2  0  0  0  0
 56 62  1  0  0  0  0
 58 60  2  0  0  0  0
 58115  1  0  0  0  0
 59116  1  0  0  0  0
 59117  1  0  0  0  0
 59118  1  0  0  0  0
 60 61  1  0  0  0  0
 60 63  1  0  0  0  0
 62120  1  0  0  0  0
 62121  1  0  0  0  0
 62122  1  0  0  0  0
 63124  1  0  0  0  0
 63125  1  0  0  0  0
 63126  1  0  0  0  0
M  END
> <PUBCHEM_COMPOUND_CID>
6323497

> <PUBCHEM_COMPOUND_CANONICALIZED>
1

> <PUBCHEM_CACTVS_COMPLEXITY>
1870

> <PUBCHEM_CACTVS_HBOND_ACCEPTOR>
15

> <PUBCHEM_CACTVS_HBOND_DONOR>
6

> <PUBCHEM_CACTVS_ROTATABLE_BOND>
6

> <PUBCHEM_CACTVS_SUBSKEYS>
AAADcfB/vAAAAAAAAAAAAAAAAAAAAaIAAAA8QIAAAAAAAEiBAAAAHgAYCAAADTzhmAYCDoPiBgCIAqXWWAKCCAAkIAAYqIFMCMgcdz6GtR62eWCl5BWMucfb7PzO4AADCAAYAADAAAYQADAAAAAAAAAAAA==

> <PUBCHEM_IUPAC_INCHI>
InChI=1S/C47H64N4O12/c1-24-13-12-14-25(2)46(59)49-37-32(23-48-51-20-18-50(19-21-51)31-15-10-11-16-31)41(56)34-35(42(37)57)40(55)29(6)44-36(34)45(58)47(8,63-44)61-22-17-33(60-9)26(3)43(62-30(7)52)28(5)39(54)27(4)38(24)53/h12-14,17,22-24,26-28,31,33,38-39,43,48,53-55,57H,10-11,15-16,18-21H2,1-9H3,(H,49,59)/b13-12+,22-17+,25-14-,32-23+/t24-,26+,27+,28+,33-,38-,39+,43+,47-/m0/s1

> <PUBCHEM_IUPAC_INCHIKEY>
RISDZDVHYCURHD-QLWTZYDESA-N

> <PUBCHEM_XLOGP3_AA>
5.8

> <PUBCHEM_EXACT_MASS>
876.452074

> <PUBCHEM_MOLECULAR_FORMULA>
C47H64N4O12

> <PUBCHEM_MOLECULAR_WEIGHT>
877.03066

> <PUBCHEM_OPENEYE_CAN_SMILES>
CC1C=CC=C(C(=O)NC2=C(C3=C(C(=C4C(=C3C(=O)C2=CNN5CCN(CC5)C6CCCC6)C(=O)C(O4)(OC=CC(C(C(C(C(C(C1O)C)O)C)OC(=O)C)C)OC)C)C)O)O)C

> <PUBCHEM_OPENEYE_ISO_SMILES>
C[C@H]1/C=C/C=C(\C(=O)NC\2=C(C3=C(C(=C4C(=C3C(=O)/C2=C/NN5CCN(CC5)C6CCCC6)C(=O)[C@](O4)(O/C=C/[C@@H]([C@H]([C@H]([C@@H]([C@@H]([C@@H]([C@H]1O)C)O)C)OC(=O)C)C)OC)C)C)O)O)/C

> <PUBCHEM_CACTVS_TPSA>
217

> <PUBCHEM_MONOISOTOPIC_WEIGHT>
876.452074

> <PUBCHEM_TOTAL_CHARGE>
0

> <PUBCHEM_HEAVY_ATOM_COUNT>
63

> <PUBCHEM_ATOM_DEF_STEREO_COUNT>
9

> <PUBCHEM_ATOM_UDEF_STEREO_COUNT>
0

> <PUBCHEM_BOND_DEF_STEREO_COUNT>
4

> <PUBCHEM_BOND_UDEF_STEREO_COUNT>
0

> <PUBCHEM_ISOTOPIC_ATOM_COUNT>
0

> <PUBCHEM_COMPONENT_COUNT>
1

> <PUBCHEM_CACTVS_TAUTO_COUNT>
1000

> <PUBCHEM_COORDINATE_TYPE>
1
5
255

> <PUBCHEM_BONDANNOTATIONS>
28  1  5
27  2  5
26  32  5
29  35  6
31  3  5
30  36  6
34  37  5
33  4  6
44  59  5
46  49  8
46  51  8
49  52  8
51  57  8
52  56  8
56  57  8

$$$$
