6435110
  -OEChem-12171208262D

269281  0     1  0  0  0  0  0999 V2000
    6.6663    3.5369    0.0000 O   0  0  0  0  0  0  0  0  0  0  0  0
    6.6663    4.5369    0.0000 O   0  0  0  0  0  0  0  0  0  0  0  0
    6.7079   15.7826    0.0000 O   0  0  0  0  0  0  0  0  0  0  0  0
    6.7079   16.7826    0.0000 O   0  0  0  0  0  0  0  0  0  0  0  0
    4.0682    6.0369    0.0000 O   0  0  0  0  0  0  0  0  0  0  0  0
    4.1098   18.2826    0.0000 O   0  0  0  0  0  0  0  0  0  0  0  0
    2.7095    9.9808    0.0000 O   0  0  0  0  0  0  0  0  0  0  0  0
    2.7510   22.2264    0.0000 O   0  0  0  0  0  0  0  0  0  0  0  0
    2.8602    9.4766    0.0000 O   0  0  0  0  0  0  0  0  0  0  0  0
    2.9017   21.7222    0.0000 O   0  0  0  0  0  0  0  0  0  0  0  0
    0.5381    9.0611    0.0000 O   0  0  0  0  0  0  0  0  0  0  0  0
    0.5797   21.3067    0.0000 O   0  0  0  0  0  0  0  0  0  0  0  0
    5.0682    7.0369    0.0000 O   0  0  0  0  0  0  0  0  0  0  0  0
    5.1098   19.2826    0.0000 O   0  0  0  0  0  0  0  0  0  0  0  0
    9.2644    9.0369    0.0000 O   0  0  0  0  0  0  0  0  0  0  0  0
    9.3059   21.2826    0.0000 O   0  0  0  0  0  0  0  0  0  0  0  0
   10.9965    9.0369    0.0000 O   0  0  0  0  0  0  0  0  0  0  0  0
   11.0380   21.2826    0.0000 O   0  0  0  0  0  0  0  0  0  0  0  0
   12.7285    7.0369    0.0000 O   0  0  0  0  0  0  0  0  0  0  0  0
   12.7700   19.2826    0.0000 O   0  0  0  0  0  0  0  0  0  0  0  0
   10.9965    6.0369    0.0000 O   0  0  0  0  0  0  0  0  0  0  0  0
   11.0380   18.2826    0.0000 O   0  0  0  0  0  0  0  0  0  0  0  0
   13.5945    8.5369    0.0000 O   0  0  0  0  0  0  0  0  0  0  0  0
   14.5021   19.2826    0.0000 O   0  0  0  0  0  0  0  0  0  0  0  0
   16.1926    7.0369    0.0000 O   0  0  0  0  0  0  0  0  0  0  0  0
   14.5021   22.2826    0.0000 O   0  0  0  0  0  0  0  0  0  0  0  0
   16.1926    9.0369    0.0000 O   0  0  0  0  0  0  0  0  0  0  0  0
   16.2341   21.2826    0.0000 O   0  0  0  0  0  0  0  0  0  0  0  0
    5.8003    4.0369    0.0000 C   0  0  2  0  0  0  0  0  0  0  0  0
    6.6663    2.5369    0.0000 C   0  0  1  0  0  0  0  0  0  0  0  0
    5.8003    2.0369    0.0000 C   0  0  2  0  0  0  0  0  0  0  0  0
    4.9343    3.5369    0.0000 C   0  0  0  0  0  0  0  0  0  0  0  0
    5.8418   16.2826    0.0000 C   0  0  2  0  0  0  0  0  0  0  0  0
    4.9343    4.5369    0.0000 C   0  0  0  0  0  0  0  0  0  0  0  0
    4.9343    2.5369    0.0000 C   0  0  0  0  0  0  0  0  0  0  0  0
    4.9343    5.5369    0.0000 C   0  0  3  0  0  0  0  0  0  0  0  0
    4.9758   15.7826    0.0000 C   0  0  0  0  0  0  0  0  0  0  0  0
    6.7079   14.7826    0.0000 C   0  0  1  0  0  0  0  0  0  0  0  0
    5.8418   14.2826    0.0000 C   0  0  2  0  0  0  0  0  0  0  0  0
    4.9758   16.7826    0.0000 C   0  0  0  0  0  0  0  0  0  0  0  0
    7.5324    2.0369    0.0000 C   0  0  3  0  0  0  0  0  0  0  0  0
    6.6663    5.5369    0.0000 C   0  0  1  0  0  0  0  0  0  0  0  0
    5.8003    6.0369    0.0000 C   0  0  0  0  0  0  0  0  0  0  0  0
    4.9758   14.7826    0.0000 C   0  0  0  0  0  0  0  0  0  0  0  0
    4.9758   17.7826    0.0000 C   0  0  3  0  0  0  0  0  0  0  0  0
    6.7079   17.7826    0.0000 C   0  0  1  0  0  0  0  0  0  0  0  0
    5.8418   18.2826    0.0000 C   0  0  0  0  0  0  0  0  0  0  0  0
    7.5739   14.2826    0.0000 C   0  0  0  0  0  0  0  0  0  0  0  0
    5.8003    1.0369    0.0000 C   0  0  0  0  0  0  0  0  0  0  0  0
    3.2022    8.5369    0.0000 C   0  0  2  0  0  0  0  0  0  0  0  0
    7.5324    6.0369    0.0000 C   0  0  0  0  0  0  0  0  0  0  0  0
    7.5324    1.0369    0.0000 C   0  0  0  0  0  0  0  0  0  0  0  0
    3.2022    7.5369    0.0000 C   0  0  2  0  0  0  0  0  0  0  0  0
    3.2438   20.7826    0.0000 C   0  0  2  0  0  0  0  0  0  0  0  0
    2.3083    9.0716    0.0000 C   0  0  1  0  0  0  0  0  0  0  0  0
    5.8418   13.2826    0.0000 C   0  0  0  0  0  0  0  0  0  0  0  0
    8.3984    2.5369    0.0000 C   0  0  0  0  0  0  0  0  0  0  0  0
    3.2438   19.7826    0.0000 C   0  0  2  0  0  0  0  0  0  0  0  0
    2.3498   21.3172    0.0000 C   0  0  1  0  0  0  0  0  0  0  0  0
    7.5739   18.2826    0.0000 C   0  0  0  0  0  0  0  0  0  0  0  0
    4.0682    7.0369    0.0000 C   0  0  0  0  0  0  0  0  0  0  0  0
    1.4022    8.5578    0.0000 C   0  0  1  0  0  0  0  0  0  0  0  0
    4.0682    9.0369    0.0000 C   0  0  0  0  0  0  0  0  0  0  0  0
    1.4438   20.8034    0.0000 C   0  0  1  0  0  0  0  0  0  0  0  0
    7.5739   13.2826    0.0000 C   0  0  0  0  0  0  0  0  0  0  0  0
    8.4399   14.7826    0.0000 C   0  0  0  0  0  0  0  0  0  0  0  0
    4.1098   19.2826    0.0000 C   0  0  0  0  0  0  0  0  0  0  0  0
    4.1098   21.2826    0.0000 C   0  0  0  0  0  0  0  0  0  0  0  0
    2.3083    7.0023    0.0000 C   0  0  0  0  0  0  0  0  0  0  0  0
    1.4022    7.5161    0.0000 C   0  0  0  0  0  0  0  0  0  0  0  0
    3.7031    9.9612    0.0000 C   0  0  0  0  0  0  0  0  0  0  0  0
    2.3498   19.2479    0.0000 C   0  0  0  0  0  0  0  0  0  0  0  0
    7.5324    7.0369    0.0000 C   0  0  0  0  0  0  0  0  0  0  0  0
    8.3984    0.5369    0.0000 C   0  0  0  0  0  0  0  0  0  0  0  0
    1.4438   19.7617    0.0000 C   0  0  0  0  0  0  0  0  0  0  0  0
    3.7447   22.2069    0.0000 C   0  0  0  0  0  0  0  0  0  0  0  0
    7.5739   19.2826    0.0000 C   0  0  0  0  0  0  0  0  0  0  0  0
    8.3984    7.5369    0.0000 C   0  0  0  0  0  0  0  0  0  0  0  0
    4.9343    8.5369    0.0000 C   0  0  0  0  0  0  0  0  0  0  0  0
    4.9758   20.7826    0.0000 C   0  0  0  0  0  0  0  0  0  0  0  0
    8.3984    8.5369    0.0000 C   0  0  2  0  0  0  0  0  0  0  0  0
    8.4399   19.7826    0.0000 C   0  0  0  0  0  0  0  0  0  0  0  0
    0.5381    7.0128    0.0000 C   0  0  0  0  0  0  0  0  0  0  0  0
    0.5797   19.2584    0.0000 C   0  0  0  0  0  0  0  0  0  0  0  0
    8.4399   20.7826    0.0000 C   0  0  2  0  0  0  0  0  0  0  0  0
    7.5324    9.0369    0.0000 C   0  0  2  0  0  0  0  0  0  0  0  0
    7.5739   21.2826    0.0000 C   0  0  2  0  0  0  0  0  0  0  0  0
    5.8003    9.0369    0.0000 C   0  0  0  0  0  0  0  0  0  0  0  0
    9.2644    7.0369    0.0000 C   0  0  0  0  0  0  0  0  0  0  0  0
    5.8418   21.2826    0.0000 C   0  0  0  0  0  0  0  0  0  0  0  0
    6.6663    8.5369    0.0000 C   0  0  0  0  0  0  0  0  0  0  0  0
    9.3059   19.2826    0.0000 C   0  0  0  0  0  0  0  0  0  0  0  0
    6.7079   20.7826    0.0000 C   0  0  0  0  0  0  0  0  0  0  0  0
   10.1304    8.5369    0.0000 C   0  0  2  0  0  0  0  0  0  0  0  0
    7.5324   10.0369    0.0000 C   0  0  0  0  0  0  0  0  0  0  0  0
   10.1720   20.7826    0.0000 C   0  0  2  0  0  0  0  0  0  0  0  0
    7.5739   22.2826    0.0000 C   0  0  0  0  0  0  0  0  0  0  0  0
   10.1304    7.5369    0.0000 C   0  0  0  0  0  0  0  0  0  0  0  0
   10.9965    7.0369    0.0000 C   0  0  1  0  0  0  0  0  0  0  0  0
   10.1720   19.7826    0.0000 C   0  0  0  0  0  0  0  0  0  0  0  0
   11.8625    7.5369    0.0000 C   0  0  2  0  0  0  0  0  0  0  0  0
   11.8625    8.5369    0.0000 C   0  0  2  0  0  0  0  0  0  0  0  0
   11.0380   19.2826    0.0000 C   0  0  1  0  0  0  0  0  0  0  0  0
   11.9040   19.7826    0.0000 C   0  0  2  0  0  0  0  0  0  0  0  0
   11.9040   20.7826    0.0000 C   0  0  2  0  0  0  0  0  0  0  0  0
   12.7285    9.0369    0.0000 C   0  0  0  0  0  0  0  0  0  0  0  0
   12.7700   21.2826    0.0000 C   0  0  0  0  0  0  0  0  0  0  0  0
   13.5945    7.5369    0.0000 C   0  0  3  0  0  0  0  0  0  0  0  0
   13.6361   19.7826    0.0000 C   0  0  3  0  0  0  0  0  0  0  0  0
   14.4606    7.0369    0.0000 C   0  0  0  0  0  0  0  0  0  0  0  0
   13.6361   20.7826    0.0000 C   0  0  0  0  0  0  0  0  0  0  0  0
   15.3266    7.5369    0.0000 C   0  0  1  0  0  0  0  0  0  0  0  0
   14.5021   21.2826    0.0000 C   0  0  1  0  0  0  0  0  0  0  0  0
   15.3266    8.5369    0.0000 C   0  0  2  0  0  0  0  0  0  0  0  0
   14.4606    9.0369    0.0000 C   0  0  2  0  0  0  0  0  0  0  0  0
   15.3681   20.7826    0.0000 C   0  0  2  0  0  0  0  0  0  0  0  0
   15.3681   19.7826    0.0000 C   0  0  2  0  0  0  0  0  0  0  0  0
   11.8625    5.5369    0.0000 C   0  0  0  0  0  0  0  0  0  0  0  0
   11.9040   17.7826    0.0000 C   0  0  0  0  0  0  0  0  0  0  0  0
   14.4606   10.0369    0.0000 C   0  0  0  0  0  0  0  0  0  0  0  0
   16.2341   19.2826    0.0000 C   0  0  0  0  0  0  0  0  0  0  0  0
   16.1926    6.0369    0.0000 C   0  0  0  0  0  0  0  0  0  0  0  0
   15.3681   22.7826    0.0000 C   0  0  0  0  0  0  0  0  0  0  0  0
    7.2033    2.8469    0.0000 H   0  0  0  0  0  0  0  0  0  0  0  0
    6.3372    1.7269    0.0000 H   0  0  0  0  0  0  0  0  0  0  0  0
    4.7222    4.1195    0.0000 H   0  0  0  0  0  0  0  0  0  0  0  0
    4.3237    3.4293    0.0000 H   0  0  0  0  0  0  0  0  0  0  0  0
    4.3237    4.6446    0.0000 H   0  0  0  0  0  0  0  0  0  0  0  0
    4.7222    3.9543    0.0000 H   0  0  0  0  0  0  0  0  0  0  0  0
    4.3237    2.6446    0.0000 H   0  0  0  0  0  0  0  0  0  0  0  0
    4.7222    1.9543    0.0000 H   0  0  0  0  0  0  0  0  0  0  0  0
    4.9343    6.1569    0.0000 H   0  0  0  0  0  0  0  0  0  0  0  0
    4.7638   16.3652    0.0000 H   0  0  0  0  0  0  0  0  0  0  0  0
    4.3652   15.6749    0.0000 H   0  0  0  0  0  0  0  0  0  0  0  0
    7.2448   15.0926    0.0000 H   0  0  0  0  0  0  0  0  0  0  0  0
    6.3788   13.9726    0.0000 H   0  0  0  0  0  0  0  0  0  0  0  0
    4.3652   16.8902    0.0000 H   0  0  0  0  0  0  0  0  0  0  0  0
    4.7638   16.1999    0.0000 H   0  0  0  0  0  0  0  0  0  0  0  0
    8.0693    1.7269    0.0000 H   0  0  0  0  0  0  0  0  0  0  0  0
    7.4024    5.1119    0.0000 H   0  0  0  0  0  0  0  0  0  0  0  0
    6.1988    6.5119    0.0000 H   0  0  0  0  0  0  0  0  0  0  0  0
    5.4018    6.5119    0.0000 H   0  0  0  0  0  0  0  0  0  0  0  0
    4.3652   14.8902    0.0000 H   0  0  0  0  0  0  0  0  0  0  0  0
    4.7638   14.1999    0.0000 H   0  0  0  0  0  0  0  0  0  0  0  0
    4.9758   18.4026    0.0000 H   0  0  0  0  0  0  0  0  0  0  0  0
    7.4440   17.3576    0.0000 H   0  0  0  0  0  0  0  0  0  0  0  0
    6.2404   18.7575    0.0000 H   0  0  0  0  0  0  0  0  0  0  0  0
    5.4433   18.7575    0.0000 H   0  0  0  0  0  0  0  0  0  0  0  0
    7.5739   14.9026    0.0000 H   0  0  0  0  0  0  0  0  0  0  0  0
    5.1803    1.0369    0.0000 H   0  0  0  0  0  0  0  0  0  0  0  0
    5.8003    0.4169    0.0000 H   0  0  0  0  0  0  0  0  0  0  0  0
    6.4203    1.0369    0.0000 H   0  0  0  0  0  0  0  0  0  0  0  0
    7.7444    5.4543    0.0000 H   0  0  0  0  0  0  0  0  0  0  0  0
    8.1429    6.1446    0.0000 H   0  0  0  0  0  0  0  0  0  0  0  0
    6.9218    1.1446    0.0000 H   0  0  0  0  0  0  0  0  0  0  0  0
    7.3203    0.4543    0.0000 H   0  0  0  0  0  0  0  0  0  0  0  0
    3.2022    6.6869    0.0000 H   0  0  0  0  0  0  0  0  0  0  0  0
    1.6779    9.6418    0.0000 H   0  0  0  0  0  0  0  0  0  0  0  0
    5.2218   13.2826    0.0000 H   0  0  0  0  0  0  0  0  0  0  0  0
    5.8418   12.6626    0.0000 H   0  0  0  0  0  0  0  0  0  0  0  0
    6.4618   13.2826    0.0000 H   0  0  0  0  0  0  0  0  0  0  0  0
    8.7084    2.0000    0.0000 H   0  0  0  0  0  0  0  0  0  0  0  0
    8.9353    2.8469    0.0000 H   0  0  0  0  0  0  0  0  0  0  0  0
    8.0884    3.0739    0.0000 H   0  0  0  0  0  0  0  0  0  0  0  0
    3.2438   18.9326    0.0000 H   0  0  0  0  0  0  0  0  0  0  0  0
    1.7194   21.8874    0.0000 H   0  0  0  0  0  0  0  0  0  0  0  0
    7.7859   17.6999    0.0000 H   0  0  0  0  0  0  0  0  0  0  0  0
    8.1845   18.3902    0.0000 H   0  0  0  0  0  0  0  0  0  0  0  0
    0.8647    8.2488    0.0000 H   0  0  0  0  0  0  0  0  0  0  0  0
    0.9062   20.4944    0.0000 H   0  0  0  0  0  0  0  0  0  0  0  0
    6.9539   13.2826    0.0000 H   0  0  0  0  0  0  0  0  0  0  0  0
    8.7499   14.2456    0.0000 H   0  0  0  0  0  0  0  0  0  0  0  0
    7.5739   12.6626    0.0000 H   0  0  0  0  0  0  0  0  0  0  0  0
    8.1939   13.2826    0.0000 H   0  0  0  0  0  0  0  0  0  0  0  0
    8.9768   15.0926    0.0000 H   0  0  0  0  0  0  0  0  0  0  0  0
    8.1299   15.3195    0.0000 H   0  0  0  0  0  0  0  0  0  0  0  0
    2.3154    6.3823    0.0000 H   0  0  0  0  0  0  0  0  0  0  0  0
    4.3047   10.1112    0.0000 H   0  0  0  0  0  0  0  0  0  0  0  0
    3.6337   10.5774    0.0000 H   0  0  0  0  0  0  0  0  0  0  0  0
    2.3570   18.6279    0.0000 H   0  0  0  0  0  0  0  0  0  0  0  0
    6.9954    7.3469    0.0000 H   0  0  0  0  0  0  0  0  0  0  0  0
    8.0884    0.0000    0.0000 H   0  0  0  0  0  0  0  0  0  0  0  0
    8.9353    0.2269    0.0000 H   0  0  0  0  0  0  0  0  0  0  0  0
    8.7084    1.0739    0.0000 H   0  0  0  0  0  0  0  0  0  0  0  0
    4.3463   22.3568    0.0000 H   0  0  0  0  0  0  0  0  0  0  0  0
    3.6752   22.8230    0.0000 H   0  0  0  0  0  0  0  0  0  0  0  0
    7.0370   19.5926    0.0000 H   0  0  0  0  0  0  0  0  0  0  0  0
    2.2776    9.6887    0.0000 H   0  0  0  0  0  0  0  0  0  0  0  0
    2.3191   21.9343    0.0000 H   0  0  0  0  0  0  0  0  0  0  0  0
    5.2444    8.0000    0.0000 H   0  0  0  0  0  0  0  0  0  0  0  0
    5.2859   20.2457    0.0000 H   0  0  0  0  0  0  0  0  0  0  0  0
    8.3984    9.1569    0.0000 H   0  0  0  0  0  0  0  0  0  0  0  0
    0.2261    7.5485    0.0000 H   0  0  0  0  0  0  0  0  0  0  0  0
    0.0024    6.7007    0.0000 H   0  0  0  0  0  0  0  0  0  0  0  0
    0.8502    6.4770    0.0000 H   0  0  0  0  0  0  0  0  0  0  0  0
    0.2676   19.7941    0.0000 H   0  0  0  0  0  0  0  0  0  0  0  0
    0.0439   18.9463    0.0000 H   0  0  0  0  0  0  0  0  0  0  0  0
    0.8917   18.7227    0.0000 H   0  0  0  0  0  0  0  0  0  0  0  0
    8.4399   21.4026    0.0000 H   0  0  0  0  0  0  0  0  0  0  0  0
    0.0000    8.7532    0.0000 H   0  0  0  0  0  0  0  0  0  0  0  0
    8.0693    9.3469    0.0000 H   0  0  0  0  0  0  0  0  0  0  0  0
    0.0415   20.9988    0.0000 H   0  0  0  0  0  0  0  0  0  0  0  0
    8.1108   21.5926    0.0000 H   0  0  0  0  0  0  0  0  0  0  0  0
    5.8003    9.6569    0.0000 H   0  0  0  0  0  0  0  0  0  0  0  0
    8.9544    6.5000    0.0000 H   0  0  0  0  0  0  0  0  0  0  0  0
    9.8013    6.7269    0.0000 H   0  0  0  0  0  0  0  0  0  0  0  0
    9.5744    7.5739    0.0000 H   0  0  0  0  0  0  0  0  0  0  0  0
    5.8418   21.9026    0.0000 H   0  0  0  0  0  0  0  0  0  0  0  0
    6.6663    7.9169    0.0000 H   0  0  0  0  0  0  0  0  0  0  0  0
    8.9959   18.7456    0.0000 H   0  0  0  0  0  0  0  0  0  0  0  0
    9.8429   18.9726    0.0000 H   0  0  0  0  0  0  0  0  0  0  0  0
    9.6159   19.8195    0.0000 H   0  0  0  0  0  0  0  0  0  0  0  0
    6.7079   20.1626    0.0000 H   0  0  0  0  0  0  0  0  0  0  0  0
    9.5935    8.2269    0.0000 H   0  0  0  0  0  0  0  0  0  0  0  0
    8.1524   10.0369    0.0000 H   0  0  0  0  0  0  0  0  0  0  0  0
    7.5324   10.6569    0.0000 H   0  0  0  0  0  0  0  0  0  0  0  0
    6.9124   10.0369    0.0000 H   0  0  0  0  0  0  0  0  0  0  0  0
    9.6350   20.4726    0.0000 H   0  0  0  0  0  0  0  0  0  0  0  0
    8.1939   22.2826    0.0000 H   0  0  0  0  0  0  0  0  0  0  0  0
    7.5739   22.9026    0.0000 H   0  0  0  0  0  0  0  0  0  0  0  0
    6.9539   22.2826    0.0000 H   0  0  0  0  0  0  0  0  0  0  0  0
    9.5198    7.6446    0.0000 H   0  0  0  0  0  0  0  0  0  0  0  0
    9.9184    6.9543    0.0000 H   0  0  0  0  0  0  0  0  0  0  0  0
   11.5334    6.7269    0.0000 H   0  0  0  0  0  0  0  0  0  0  0  0
    9.5614   19.8902    0.0000 H   0  0  0  0  0  0  0  0  0  0  0  0
    9.9599   19.1999    0.0000 H   0  0  0  0  0  0  0  0  0  0  0  0
   11.8625    6.9169    0.0000 H   0  0  0  0  0  0  0  0  0  0  0  0
   11.8625    9.1569    0.0000 H   0  0  0  0  0  0  0  0  0  0  0  0
   11.5749   18.9726    0.0000 H   0  0  0  0  0  0  0  0  0  0  0  0
   12.4410   20.0926    0.0000 H   0  0  0  0  0  0  0  0  0  0  0  0
   11.9040   21.4026    0.0000 H   0  0  0  0  0  0  0  0  0  0  0  0
   13.0385    8.5000    0.0000 H   0  0  0  0  0  0  0  0  0  0  0  0
   13.2654    9.3469    0.0000 H   0  0  0  0  0  0  0  0  0  0  0  0
   12.4185    9.5739    0.0000 H   0  0  0  0  0  0  0  0  0  0  0  0
   13.0800   20.7456    0.0000 H   0  0  0  0  0  0  0  0  0  0  0  0
   13.3070   21.5926    0.0000 H   0  0  0  0  0  0  0  0  0  0  0  0
   12.4600   21.8195    0.0000 H   0  0  0  0  0  0  0  0  0  0  0  0
   13.0576    7.8469    0.0000 H   0  0  0  0  0  0  0  0  0  0  0  0
   13.6361   19.1626    0.0000 H   0  0  0  0  0  0  0  0  0  0  0  0
   14.0620    6.5620    0.0000 H   0  0  0  0  0  0  0  0  0  0  0  0
   14.8591    6.5620    0.0000 H   0  0  0  0  0  0  0  0  0  0  0  0
   13.4240   21.3652    0.0000 H   0  0  0  0  0  0  0  0  0  0  0  0
   13.0255   20.6749    0.0000 H   0  0  0  0  0  0  0  0  0  0  0  0
   15.8635    7.8469    0.0000 H   0  0  0  0  0  0  0  0  0  0  0  0
   13.9652   21.5926    0.0000 H   0  0  0  0  0  0  0  0  0  0  0  0
   15.8635    8.2269    0.0000 H   0  0  0  0  0  0  0  0  0  0  0  0
   13.9236    9.3469    0.0000 H   0  0  0  0  0  0  0  0  0  0  0  0
   15.3681   21.4026    0.0000 H   0  0  0  0  0  0  0  0  0  0  0  0
   15.3681   19.1626    0.0000 H   0  0  0  0  0  0  0  0  0  0  0  0
   11.5525    5.0000    0.0000 H   0  0  0  0  0  0  0  0  0  0  0  0
   12.3994    5.2269    0.0000 H   0  0  0  0  0  0  0  0  0  0  0  0
   12.1725    6.0739    0.0000 H   0  0  0  0  0  0  0  0  0  0  0  0
   11.5940   17.2456    0.0000 H   0  0  0  0  0  0  0  0  0  0  0  0
   12.4410   17.4726    0.0000 H   0  0  0  0  0  0  0  0  0  0  0  0
   12.2140   18.3195    0.0000 H   0  0  0  0  0  0  0  0  0  0  0  0
   15.0806   10.0369    0.0000 H   0  0  0  0  0  0  0  0  0  0  0  0
   14.4606   10.6569    0.0000 H   0  0  0  0  0  0  0  0  0  0  0  0
   13.8406   10.0369    0.0000 H   0  0  0  0  0  0  0  0  0  0  0  0
   15.9241   18.7456    0.0000 H   0  0  0  0  0  0  0  0  0  0  0  0
   16.7711   18.9726    0.0000 H   0  0  0  0  0  0  0  0  0  0  0  0
   16.5441   19.8195    0.0000 H   0  0  0  0  0  0  0  0  0  0  0  0
   16.7295    8.7269    0.0000 H   0  0  0  0  0  0  0  0  0  0  0  0
   16.7711   20.9726    0.0000 H   0  0  0  0  0  0  0  0  0  0  0  0
   15.5726    6.0369    0.0000 H   0  0  0  0  0  0  0  0  0  0  0  0
   16.1926    5.4169    0.0000 H   0  0  0  0  0  0  0  0  0  0  0  0
   16.8126    6.0369    0.0000 H   0  0  0  0  0  0  0  0  0  0  0  0
   15.6781   22.2456    0.0000 H   0  0  0  0  0  0  0  0  0  0  0  0
   15.9050   23.0926    0.0000 H   0  0  0  0  0  0  0  0  0  0  0  0
   15.0581   23.3195    0.0000 H   0  0  0  0  0  0  0  0  0  0  0  0
 29  1  1  6  0  0  0
  1 30  1  0  0  0  0
  2 29  1  0  0  0  0
  2 42  1  0  0  0  0
 33  3  1  6  0  0  0
  3 38  1  0  0  0  0
  4 33  1  0  0  0  0
  4 46  1  0  0  0  0
  5 36  1  0  0  0  0
  5 61  1  0  0  0  0
  6 45  1  0  0  0  0
  6 67  1  0  0  0  0
  7 55  1  0  0  0  0
  7 71  1  0  0  0  0
  8 59  1  0  0  0  0
  8 76  1  0  0  0  0
 50  9  1  6  0  0  0
  9188  1  0  0  0  0
 54 10  1  6  0  0  0
 10189  1  0  0  0  0
 62 11  1  1  0  0  0
 11200  1  0  0  0  0
 64 12  1  1  0  0  0
 12202  1  0  0  0  0
 13 61  2  0  0  0  0
 14 67  2  0  0  0  0
 81 15  1  6  0  0  0
 94 15  1  6  0  0  0
 85 16  1  6  0  0  0
 96 16  1  6  0  0  0
 17 94  1  0  0  0  0
 17102  1  0  0  0  0
 18 96  1  0  0  0  0
 18105  1  0  0  0  0
101 19  1  6  0  0  0
 19108  1  0  0  0  0
104 20  1  6  0  0  0
 20109  1  0  0  0  0
 99 21  1  1  0  0  0
 21118  1  0  0  0  0
103 22  1  1  0  0  0
 22119  1  0  0  0  0
 23108  1  0  0  0  0
 23115  1  0  0  0  0
 24109  1  0  0  0  0
 24117  1  0  0  0  0
112 25  1  1  0  0  0
 25122  1  0  0  0  0
113 26  1  6  0  0  0
 26123  1  0  0  0  0
114 27  1  6  0  0  0
 27262  1  0  0  0  0
116 28  1  1  0  0  0
 28263  1  0  0  0  0
 29 32  1  0  0  0  0
 29 34  1  0  0  0  0
 30 31  1  0  0  0  0
 30 41  1  6  0  0  0
 30124  1  0  0  0  0
 31 35  1  0  0  0  0
 31 49  1  1  0  0  0
 31125  1  0  0  0  0
 32 35  1  0  0  0  0
 32126  1  0  0  0  0
 32127  1  0  0  0  0
 33 37  1  0  0  0  0
 33 40  1  0  0  0  0
 34 36  1  0  0  0  0
 34128  1  0  0  0  0
 34129  1  0  0  0  0
 35130  1  0  0  0  0
 35131  1  0  0  0  0
 36 43  1  0  0  0  0
 36132  1  0  0  0  0
 37 44  1  0  0  0  0
 37133  1  0  0  0  0
 37134  1  0  0  0  0
 38 39  1  0  0  0  0
 38 48  1  6  0  0  0
 38135  1  0  0  0  0
 39 44  1  0  0  0  0
 39 56  1  1  0  0  0
 39136  1  0  0  0  0
 40 45  1  0  0  0  0
 40137  1  0  0  0  0
 40138  1  0  0  0  0
 41 52  1  0  0  0  0
 41 57  1  0  0  0  0
 41139  1  0  0  0  0
 42 43  1  0  0  0  0
 42 51  1  0  0  0  0
 42140  1  6  0  0  0
 43141  1  0  0  0  0
 43142  1  0  0  0  0
 44143  1  0  0  0  0
 44144  1  0  0  0  0
 45 47  1  0  0  0  0
 45145  1  0  0  0  0
 46 47  1  0  0  0  0
 46 60  1  0  0  0  0
 46146  1  6  0  0  0
 47147  1  0  0  0  0
 47148  1  0  0  0  0
 48 65  1  0  0  0  0
 48 66  1  0  0  0  0
 48149  1  0  0  0  0
 49150  1  0  0  0  0
 49151  1  0  0  0  0
 49152  1  0  0  0  0
 50 53  1  0  0  0  0
 50 55  1  0  0  0  0
 50 63  1  0  0  0  0
 51 73  1  0  0  0  0
 51153  1  0  0  0  0
 51154  1  0  0  0  0
 52 74  1  0  0  0  0
 52155  1  0  0  0  0
 52156  1  0  0  0  0
 53 61  1  0  0  0  0
 53 69  1  0  0  0  0
 53157  1  1  0  0  0
 54 58  1  0  0  0  0
 54 59  1  0  0  0  0
 54 68  1  0  0  0  0
 55 62  1  0  0  0  0
 55158  1  6  0  0  0
 56159  1  0  0  0  0
 56160  1  0  0  0  0
 56161  1  0  0  0  0
 57162  1  0  0  0  0
 57163  1  0  0  0  0
 57164  1  0  0  0  0
 58 67  1  0  0  0  0
 58 72  1  0  0  0  0
 58165  1  1  0  0  0
 59 64  1  0  0  0  0
 59166  1  6  0  0  0
 60 77  1  0  0  0  0
 60167  1  0  0  0  0
 60168  1  0  0  0  0
 62 70  1  0  0  0  0
 62169  1  0  0  0  0
 63 71  1  0  0  0  0
 63 79  2  0  0  0  0
 64 75  1  0  0  0  0
 64170  1  0  0  0  0
 65171  1  0  0  0  0
 65173  1  0  0  0  0
 65174  1  0  0  0  0
 66172  1  0  0  0  0
 66175  1  0  0  0  0
 66176  1  0  0  0  0
 68 76  1  0  0  0  0
 68 80  2  0  0  0  0
 69 70  2  0  0  0  0
 69177  1  0  0  0  0
 70 83  1  0  0  0  0
 71178  1  0  0  0  0
 71179  1  0  0  0  0
 72 75  2  0  0  0  0
 72180  1  0  0  0  0
 73 78  2  0  0  0  0
 73181  1  0  0  0  0
 74182  1  0  0  0  0
 74183  1  0  0  0  0
 74184  1  0  0  0  0
 75 84  1  0  0  0  0
 76185  1  0  0  0  0
 76186  1  0  0  0  0
 77 82  2  0  0  0  0
 77187  1  0  0  0  0
 78 81  1  0  0  0  0
 78 89  1  0  0  0  0
 79 88  1  0  0  0  0
 79190  1  0  0  0  0
 80 90  1  0  0  0  0
 80191  1  0  0  0  0
 81 86  1  0  0  0  0
 81192  1  0  0  0  0
 82 85  1  0  0  0  0
 82 92  1  0  0  0  0
 83193  1  0  0  0  0
 83194  1  0  0  0  0
 83195  1  0  0  0  0
 84196  1  0  0  0  0
 84197  1  0  0  0  0
 84198  1  0  0  0  0
 85 87  1  0  0  0  0
 85199  1  0  0  0  0
 86 91  1  0  0  0  0
 86 95  1  6  0  0  0
 86201  1  0  0  0  0
 87 93  1  0  0  0  0
 87 97  1  6  0  0  0
 87203  1  0  0  0  0
 88 91  2  0  0  0  0
 88204  1  0  0  0  0
 89205  1  0  0  0  0
 89206  1  0  0  0  0
 89207  1  0  0  0  0
 90 93  2  0  0  0  0
 90208  1  0  0  0  0
 91209  1  0  0  0  0
 92210  1  0  0  0  0
 92211  1  0  0  0  0
 92212  1  0  0  0  0
 93213  1  0  0  0  0
 94 98  1  0  0  0  0
 94214  1  0  0  0  0
 95215  1  0  0  0  0
 95216  1  0  0  0  0
 95217  1  0  0  0  0
 96100  1  0  0  0  0
 96218  1  0  0  0  0
 97219  1  0  0  0  0
 97220  1  0  0  0  0
 97221  1  0  0  0  0
 98 99  1  0  0  0  0
 98222  1  0  0  0  0
 98223  1  0  0  0  0
 99101  1  0  0  0  0
 99224  1  0  0  0  0
100103  1  0  0  0  0
100225  1  0  0  0  0
100226  1  0  0  0  0
101102  1  0  0  0  0
101227  1  0  0  0  0
102106  1  1  0  0  0
102228  1  0  0  0  0
103104  1  0  0  0  0
103229  1  0  0  0  0
104105  1  0  0  0  0
104230  1  0  0  0  0
105107  1  1  0  0  0
105231  1  0  0  0  0
106232  1  0  0  0  0
106233  1  0  0  0  0
106234  1  0  0  0  0
107235  1  0  0  0  0
107236  1  0  0  0  0
107237  1  0  0  0  0
108110  1  0  0  0  0
108238  1  0  0  0  0
109111  1  0  0  0  0
109239  1  0  0  0  0
110112  1  0  0  0  0
110240  1  0  0  0  0
110241  1  0  0  0  0
111113  1  0  0  0  0
111242  1  0  0  0  0
111243  1  0  0  0  0
112114  1  0  0  0  0
112244  1  0  0  0  0
113116  1  0  0  0  0
113245  1  0  0  0  0
114115  1  0  0  0  0
114246  1  0  0  0  0
115120  1  1  0  0  0
115247  1  0  0  0  0
116117  1  0  0  0  0
116248  1  0  0  0  0
117121  1  6  0  0  0
117249  1  0  0  0  0
118250  1  0  0  0  0
118251  1  0  0  0  0
118252  1  0  0  0  0
119253  1  0  0  0  0
119254  1  0  0  0  0
119255  1  0  0  0  0
120256  1  0  0  0  0
120257  1  0  0  0  0
120258  1  0  0  0  0
121259  1  0  0  0  0
121260  1  0  0  0  0
121261  1  0  0  0  0
122264  1  0  0  0  0
122265  1  0  0  0  0
122266  1  0  0  0  0
123267  1  0  0  0  0
123268  1  0  0  0  0
123269  1  0  0  0  0
M  END
> <PUBCHEM_COMPOUND_CID>
6435110

> <PUBCHEM_COMPOUND_CANONICALIZED>
1

> <PUBCHEM_CACTVS_COMPLEXITY>
3340

> <PUBCHEM_CACTVS_HBOND_ACCEPTOR>
28

> <PUBCHEM_CACTVS_HBOND_DONOR>
6

> <PUBCHEM_CACTVS_ROTATABLE_BOND>
15

> <PUBCHEM_CACTVS_SUBSKEYS>
AAADcfB8PgAAAAAAAAAAAAAAAAAAASJAAAAkSJEiQAAAAEAAAAAAGgAACAAADVSwgAMCCAAABgCIAiDSCAAAAAAgAAAICAEAAAgZFBYAIQAiUAAF4AAPsAPK7OzOgAAAAAAAAAAAAAAAAAAAAAAAAAAAAA==

> <PUBCHEM_IUPAC_INCHI>
InChI=1S/C48H74O14.C47H72O14/c1-11-25(2)43-28(5)17-18-47(62-43)23-34-20-33(61-47)16-15-27(4)42(26(3)13-12-14-32-24-55-45-40(49)29(6)19-35(46(51)58-34)48(32,45)52)59-39-22-37(54-10)44(31(8)57-39)60-38-21-36(53-9)41(50)30(7)56-38;1-24(2)41-27(5)16-17-46(61-41)22-33-19-32(60-46)15-14-26(4)42(25(3)12-11-13-31-23-54-44-39(48)28(6)18-34(45(50)57-33)47(31,44)51)58-38-21-36(53-10)43(30(8)56-38)59-37-20-35(52-9)40(49)29(7)55-37/h12-15,19,25-26,28,30-31,33-45,49-50,52H,11,16-18,20-24H2,1-10H3;11-14,18,24-25,27,29-30,32-44,48-49,51H,15-17,19-23H2,1-10H3/b13-12+,27-15+,32-14+;12-11+,26-14+,31-13+/t25?,26-,28-,30-,31-,33+,34?,35-,36-,37-,38?,39-,40+,41-,42-,43+,44-,45+,47+,48+;25-,27-,29-,30-,32+,33?,34-,35-,36-,37?,38-,39+,40-,41+,42-,43-,44+,46+,47+/m00/s1

> <PUBCHEM_IUPAC_INCHIKEY>
SPBDXSGPUHCETR-VHJJIYNUSA-N

> <PUBCHEM_EXACT_MASS>
1736.003419

> <PUBCHEM_MOLECULAR_FORMULA>
C95H146O28

> <PUBCHEM_MOLECULAR_WEIGHT>
1736.15894

> <PUBCHEM_OPENEYE_CAN_SMILES>
CCC(C)C1C(CCC2(O1)CC3CC(O2)CC=C(C(C(C=CC=C4COC5C4(C(C=C(C5O)C)C(=O)O3)O)C)OC6CC(C(C(O6)C)OC7CC(C(C(O7)C)O)OC)OC)C)C.CC1CCC2(CC3CC(O2)CC=C(C(C(C=CC=C4COC5C4(C(C=C(C5O)C)C(=O)O3)O)C)OC6CC(C(C(O6)C)OC7CC(C(C(O7)C)O)OC)OC)C)OC1C(C)C

> <PUBCHEM_OPENEYE_ISO_SMILES>
CCC(C)[C@@H]1[C@H](CC[C@@]2(O1)CC3C[C@H](O2)C/C=C(/[C@H]([C@H](/C=C/C=C/4\CO[C@H]5[C@@]4([C@@H](C=C([C@H]5O)C)C(=O)O3)O)C)O[C@H]6C[C@@H]([C@H]([C@@H](O6)C)OC7C[C@@H]([C@H]([C@@H](O7)C)O)OC)OC)\C)C.C[C@H]1CC[C@]2(CC3C[C@H](O2)C/C=C(/[C@H]([C@H](/C=C/C=C/4\CO[C@H]5[C@@]4([C@@H](C=C([C@H]5O)C)C(=O)O3)O)C)O[C@H]6C[C@@H]([C@H]([C@@H](O6)C)OC7C[C@@H]([C@H]([C@@H](O7)C)O)OC)OC)\C)O[C@@H]1C(C)C

> <PUBCHEM_CACTVS_TPSA>
340

> <PUBCHEM_MONOISOTOPIC_WEIGHT>
1735.000064

> <PUBCHEM_TOTAL_CHARGE>
0

> <PUBCHEM_HEAVY_ATOM_COUNT>
123

> <PUBCHEM_ATOM_DEF_STEREO_COUNT>
34

> <PUBCHEM_ATOM_UDEF_STEREO_COUNT>
5

> <PUBCHEM_BOND_DEF_STEREO_COUNT>
6

> <PUBCHEM_BOND_UDEF_STEREO_COUNT>
0

> <PUBCHEM_ISOTOPIC_ATOM_COUNT>
0

> <PUBCHEM_COMPONENT_COUNT>
2

> <PUBCHEM_CACTVS_TAUTO_COUNT>
1

> <PUBCHEM_COORDINATE_TYPE>
1
5
255

> <PUBCHEM_BONDANNOTATIONS>
29  1  6
54  10  6
102  106  5
105  107  5
62  11  5
115  120  5
117  121  6
64  12  5
81  15  6
94  15  6
85  16  6
96  16  6
101  19  6
108  19  3
104  20  6
109  20  3
99  21  5
103  22  5
112  25  5
113  26  6
114  27  6
116  28  5
33  3  6
30  41  6
31  49  5
36  43  3
38  48  6
39  56  5
41  57  3
42  140  6
45  47  3
46  146  6
53  157  5
55  158  6
58  165  5
59  166  6
86  95  6
87  97  6
50  9  6

$$$$
