72057
  -OEChem-12171208212D

 63 62  0     1  0  0  0  0  0999 V2000
    2.0000    3.0109    0.0000 Ga  0  1  0  0  0  0  0  0  0  0  0  0
    7.4803    2.9021    0.0000 O   0  0  0  0  0  0  0  0  0  0  0  0
   10.0784    1.4021    0.0000 O   0  0  0  0  0  0  0  0  0  0  0  0
    9.2124    3.9021    0.0000 O   0  0  0  0  0  0  0  0  0  0  0  0
    2.9914    2.8804    0.0000 O   0  5  0  0  0  0  0  0  0  0  0  0
    8.2220   -4.2121    0.0000 O   0  5  0  0  0  0  0  0  0  0  0  0
    2.7654    1.1632    0.0000 O   0  0  0  0  0  0  0  0  0  0  0  0
    6.6218   -3.5493    0.0000 O   0  0  0  0  0  0  0  0  0  0  0  0
    3.2647   -3.7028    0.0000 O   0  5  0  0  0  0  0  0  0  0  0  0
    2.8164   -2.0297    0.0000 O   0  0  0  0  0  0  0  0  0  0  0  0
    7.4803    0.9021    0.0000 N   0  0  0  0  0  0  0  0  0  0  0  0
    4.7483    0.9021    0.0000 N   0  0  3  0  0  0  0  0  0  0  0  0
    7.3872   -1.7016    0.0000 N   0  0  3  0  0  0  0  0  0  0  0  0
    4.7483   -1.5121    0.0000 N   0  0  0  0  0  0  0  0  0  0  0  0
    8.3463    1.4021    0.0000 C   0  0  1  0  0  0  0  0  0  0  0  0
    7.4803   -0.0979    0.0000 C   0  0  0  0  0  0  0  0  0  0  0  0
    6.6143    1.4021    0.0000 C   0  0  0  0  0  0  0  0  0  0  0  0
    7.8872   -0.8355    0.0000 C   0  0  0  0  0  0  0  0  0  0  0  0
    5.7483    0.9021    0.0000 C   0  0  0  0  0  0  0  0  0  0  0  0
    8.3463    2.4021    0.0000 C   0  0  1  0  0  0  0  0  0  0  0  0
    4.0412    0.1950    0.0000 C   0  0  0  0  0  0  0  0  0  0  0  0
    6.4213   -1.9604    0.0000 C   0  0  0  0  0  0  0  0  0  0  0  0
    9.2124    0.9021    0.0000 C   0  0  0  0  0  0  0  0  0  0  0  0
    4.0412   -0.8050    0.0000 C   0  0  0  0  0  0  0  0  0  0  0  0
    5.7142   -1.2533    0.0000 C   0  0  0  0  0  0  0  0  0  0  0  0
    9.2124    2.9021    0.0000 C   0  0  0  0  0  0  0  0  0  0  0  0
    4.3656    1.8260    0.0000 C   0  0  0  0  0  0  0  0  0  0  0  0
    7.9960   -2.4949    0.0000 C   0  0  0  0  0  0  0  0  0  0  0  0
    4.4894   -2.4780    0.0000 C   0  0  0  0  0  0  0  0  0  0  0  0
    3.3741    1.9565    0.0000 C   0  0  0  0  0  0  0  0  0  0  0  0
    7.6133   -3.4188    0.0000 C   0  0  0  0  0  0  0  0  0  0  0  0
    3.5235   -2.7368    0.0000 C   0  0  0  0  0  0  0  0  0  0  0  0
    8.3463    0.7821    0.0000 H   0  0  0  0  0  0  0  0  0  0  0  0
    7.0128    1.8771    0.0000 H   0  0  0  0  0  0  0  0  0  0  0  0
    6.2158    1.8771    0.0000 H   0  0  0  0  0  0  0  0  0  0  0  0
    6.8991    0.1180    0.0000 H   0  0  0  0  0  0  0  0  0  0  0  0
    8.0807    0.0568    0.0000 H   0  0  0  0  0  0  0  0  0  0  0  0
    5.5362    0.3195    0.0000 H   0  0  0  0  0  0  0  0  0  0  0  0
    5.5878    1.5010    0.0000 H   0  0  0  0  0  0  0  0  0  0  0  0
    8.3596   -1.2371    0.0000 H   0  0  0  0  0  0  0  0  0  0  0  0
    8.3673   -0.4432    0.0000 H   0  0  0  0  0  0  0  0  0  0  0  0
    7.8094    2.0921    0.0000 H   0  0  0  0  0  0  0  0  0  0  0  0
    3.7312    0.7320    0.0000 H   0  0  0  0  0  0  0  0  0  0  0  0
    3.4423    0.0346    0.0000 H   0  0  0  0  0  0  0  0  0  0  0  0
    5.9134   -2.3160    0.0000 H   0  0  0  0  0  0  0  0  0  0  0  0
    6.6833   -2.5223    0.0000 H   0  0  0  0  0  0  0  0  0  0  0  0
    8.8138    0.4272    0.0000 H   0  0  0  0  0  0  0  0  0  0  0  0
    9.6109    0.4272    0.0000 H   0  0  0  0  0  0  0  0  0  0  0  0
    3.4423   -0.6445    0.0000 H   0  0  0  0  0  0  0  0  0  0  0  0
    3.7312   -1.3419    0.0000 H   0  0  0  0  0  0  0  0  0  0  0  0
    6.2221   -0.8976    0.0000 H   0  0  0  0  0  0  0  0  0  0  0  0
    5.4522   -0.6913    0.0000 H   0  0  0  0  0  0  0  0  0  0  0  0
    9.4244    2.3195    0.0000 H   0  0  0  0  0  0  0  0  0  0  0  0
    9.8229    3.0098    0.0000 H   0  0  0  0  0  0  0  0  0  0  0  0
    8.5189   -2.8280    0.0000 H   0  0  0  0  0  0  0  0  0  0  0  0
    8.4148   -2.0378    0.0000 H   0  0  0  0  0  0  0  0  0  0  0  0
    4.9709    1.9602    0.0000 H   0  0  0  0  0  0  0  0  0  0  0  0
    4.3385    2.4454    0.0000 H   0  0  0  0  0  0  0  0  0  0  0  0
    4.5435   -3.0956    0.0000 H   0  0  0  0  0  0  0  0  0  0  0  0
    5.1071   -2.5320    0.0000 H   0  0  0  0  0  0  0  0  0  0  0  0
    7.4803    3.5221    0.0000 H   0  0  0  0  0  0  0  0  0  0  0  0
   10.6153    1.0921    0.0000 H   0  0  0  0  0  0  0  0  0  0  0  0
    9.7493    4.2121    0.0000 H   0  0  0  0  0  0  0  0  0  0  0  0
 20  2  1  6  0  0  0
  2 61  1  0  0  0  0
  3 23  1  0  0  0  0
  3 62  1  0  0  0  0
  4 26  1  0  0  0  0
  4 63  1  0  0  0  0
  5 30  1  0  0  0  0
  6 31  1  0  0  0  0
  7 30  2  0  0  0  0
  8 31  2  0  0  0  0
  9 32  1  0  0  0  0
 10 32  2  0  0  0  0
 11 15  1  0  0  0  0
 11 16  1  0  0  0  0
 11 17  1  0  0  0  0
 12 19  1  0  0  0  0
 12 21  1  0  0  0  0
 12 27  1  0  0  0  0
 13 18  1  0  0  0  0
 13 22  1  0  0  0  0
 13 28  1  0  0  0  0
 14 24  1  0  0  0  0
 14 25  1  0  0  0  0
 14 29  1  0  0  0  0
 15 20  1  0  0  0  0
 15 23  1  1  0  0  0
 15 33  1  0  0  0  0
 16 18  1  0  0  0  0
 16 36  1  0  0  0  0
 16 37  1  0  0  0  0
 17 19  1  0  0  0  0
 17 34  1  0  0  0  0
 17 35  1  0  0  0  0
 18 40  1  0  0  0  0
 18 41  1  0  0  0  0
 19 38  1  0  0  0  0
 19 39  1  0  0  0  0
 20 26  1  0  0  0  0
 20 42  1  0  0  0  0
 21 24  1  0  0  0  0
 21 43  1  0  0  0  0
 21 44  1  0  0  0  0
 22 25  1  0  0  0  0
 22 45  1  0  0  0  0
 22 46  1  0  0  0  0
 23 47  1  0  0  0  0
 23 48  1  0  0  0  0
 24 49  1  0  0  0  0
 24 50  1  0  0  0  0
 25 51  1  0  0  0  0
 25 52  1  0  0  0  0
 26 53  1  0  0  0  0
 26 54  1  0  0  0  0
 27 30  1  0  0  0  0
 27 57  1  0  0  0  0
 27 58  1  0  0  0  0
 28 31  1  0  0  0  0
 28 55  1  0  0  0  0
 28 56  1  0  0  0  0
 29 32  1  0  0  0  0
 29 59  1  0  0  0  0
 29 60  1  0  0  0  0
M  CHG  4   1   3   5  -1   6  -1   9  -1
M  END
> <PUBCHEM_COMPOUND_CID>
72057

> <PUBCHEM_COMPOUND_CANONICALIZED>
1

> <PUBCHEM_CACTVS_COMPLEXITY>
532

> <PUBCHEM_CACTVS_HBOND_ACCEPTOR>
13

> <PUBCHEM_CACTVS_HBOND_DONOR>
3

> <PUBCHEM_CACTVS_ROTATABLE_BOND>
7

> <PUBCHEM_CACTVS_SUBSKEYS>
AAADceB7vAAAAAABAAAAAAAAAAAAAAAAAAAAAAAAAAAAAAAAAAAAHgAACAAACDzhgAYACAMAAgAIAACQCAAAAAAAAAAAAACIAAADUAAAACAUQAAHAACRAABAAAAAAAAAAAAAAAAAAAAAAAAAAAAAAAAAAA==

> <PUBCHEM_IUPAC_OPENEYE_NAME>
gallium;2-[4,10-bis(carboxylatomethyl)-7-[(1R,2S)-2,3-dihydroxy-1-(hydroxymethyl)propyl]-1,4,7,10-tetrazacyclododec-1-yl]acetate

> <PUBCHEM_IUPAC_CAS_NAME>
gallium;2-[4,10-bis(carboxylatomethyl)-7-[(2R,3S)-1,3,4-trihydroxybutan-2-yl]-1,4,7,10-tetrazacyclododec-1-yl]acetate

> <PUBCHEM_IUPAC_NAME>
gallium;2-[4,10-bis(carboxylatomethyl)-7-[(2R,3S)-1,3,4-trihydroxybutan-2-yl]-1,4,7,10-tetrazacyclododec-1-yl]acetate

> <PUBCHEM_IUPAC_SYSTEMATIC_NAME>
gallium;2-[4,10-bis(2-oxidanidyl-2-oxidanylidene-ethyl)-7-[(2R,3S)-1,3,4-tris(oxidanyl)butan-2-yl]-1,4,7,10-tetrazacyclododec-1-yl]ethanoate

> <PUBCHEM_IUPAC_TRADITIONAL_NAME>
gallium;2-[4,10-bis(carboxylatomethyl)-7-[(1R,2S)-2,3-dihydroxy-1-methylol-propyl]-1,4,7,10-tetrazacyclododec-1-yl]acetate

> <PUBCHEM_IUPAC_INCHI>
InChI=1S/C18H34N4O9.Ga/c23-12-14(15(25)13-24)22-7-5-20(10-17(28)29)3-1-19(9-16(26)27)2-4-21(6-8-22)11-18(30)31;/h14-15,23-25H,1-13H2,(H,26,27)(H,28,29)(H,30,31);/q;+3/p-3/t14-,15-;/m1./s1

> <PUBCHEM_IUPAC_INCHIKEY>
LNUSHJPTOIHLSF-CTHHTMFSSA-K

> <PUBCHEM_EXACT_MASS>
516.134677

> <PUBCHEM_MOLECULAR_FORMULA>
C18H31GaN4O9

> <PUBCHEM_MOLECULAR_WEIGHT>
517.18314

> <PUBCHEM_OPENEYE_CAN_SMILES>
C1CN(CCN(CCN(CCN1CC(=O)[O-])CC(=O)[O-])C(CO)C(CO)O)CC(=O)[O-].[Ga+3]

> <PUBCHEM_OPENEYE_ISO_SMILES>
C1CN(CCN(CCN(CCN1CC(=O)[O-])CC(=O)[O-])[C@H](CO)[C@@H](CO)O)CC(=O)[O-].[Ga+3]

> <PUBCHEM_CACTVS_TPSA>
194

> <PUBCHEM_MONOISOTOPIC_WEIGHT>
516.134677

> <PUBCHEM_TOTAL_CHARGE>
0

> <PUBCHEM_HEAVY_ATOM_COUNT>
32

> <PUBCHEM_ATOM_DEF_STEREO_COUNT>
2

> <PUBCHEM_ATOM_UDEF_STEREO_COUNT>
0

> <PUBCHEM_BOND_DEF_STEREO_COUNT>
0

> <PUBCHEM_BOND_UDEF_STEREO_COUNT>
0

> <PUBCHEM_ISOTOPIC_ATOM_COUNT>
0

> <PUBCHEM_COMPONENT_COUNT>
2

> <PUBCHEM_CACTVS_TAUTO_COUNT>
1

> <PUBCHEM_COORDINATE_TYPE>
1
5
255

> <PUBCHEM_BONDANNOTATIONS>
15  23  5
20  2  6

$$$$
