72467
  -OEChem-12171208212D

180185  0     1  0  0  0  0  0999 V2000
   12.0519   -5.1930    0.0000 S   0  0  0  0  0  0  0  0  0  0  0  0
    9.3212   -6.7470    0.0000 S   0  0  0  0  0  0  0  0  0  0  0  0
    2.9782   -7.5436    0.0000 S   0  3  0  0  0  0  0  0  0  0  0  0
   24.9753    0.6847    0.0000 O   0  0  0  0  0  0  0  0  0  0  0  0
   24.1092   -1.8153    0.0000 O   0  0  0  0  0  0  0  0  0  0  0  0
   26.7073    0.6847    0.0000 O   0  0  0  0  0  0  0  0  0  0  0  0
   23.2432   -0.3153    0.0000 O   0  0  0  0  0  0  0  0  0  0  0  0
   26.7073   -0.3153    0.0000 O   0  0  0  0  0  0  0  0  0  0  0  0
   26.7073   -2.3153    0.0000 O   0  0  0  0  0  0  0  0  0  0  0  0
   26.7073    3.6847    0.0000 O   0  0  0  0  0  0  0  0  0  0  0  0
   24.9753    2.6847    0.0000 O   0  0  0  0  0  0  0  0  0  0  0  0
   28.4394    2.6847    0.0000 O   0  0  0  0  0  0  0  0  0  0  0  0
   24.1092   -3.8153    0.0000 O   0  0  0  0  0  0  0  0  0  0  0  0
   28.4394   -0.3153    0.0000 O   0  0  0  0  0  0  0  0  0  0  0  0
   20.3032   -1.7550    0.0000 O   0  0  0  0  0  0  0  0  0  0  0  0
   28.4394    3.6847    0.0000 O   0  0  0  0  0  0  0  0  0  0  0  0
   17.6451    0.9168    0.0000 O   0  0  0  0  0  0  0  0  0  0  0  0
   23.2432    0.6847    0.0000 O   0  0  0  0  0  0  0  0  0  0  0  0
   16.1451    0.0507    0.0000 O   0  0  0  0  0  0  0  0  0  0  0  0
   13.6451   -0.8153    0.0000 O   0  0  0  0  0  0  0  0  0  0  0  0
   15.1451   -3.4134    0.0000 O   0  0  0  0  0  0  0  0  0  0  0  0
   18.9131    5.1847    0.0000 O   0  0  0  0  0  0  0  0  0  0  0  0
   18.0471    6.6847    0.0000 O   0  0  0  0  0  0  0  0  0  0  0  0
    6.6328   -4.7790    0.0000 O   0  0  0  0  0  0  0  0  0  0  0  0
   21.5112    0.6847    0.0000 N   0  0  0  0  0  0  0  0  0  0  0  0
   21.5682   -2.4031    0.0000 N   0  0  0  0  0  0  0  0  0  0  0  0
   19.6451   -0.8153    0.0000 N   0  0  0  0  0  0  0  0  0  0  0  0
   22.8772   -3.3541    0.0000 N   0  0  0  0  0  0  0  0  0  0  0  0
   27.5733    5.1847    0.0000 N   0  0  0  0  0  0  0  0  0  0  0  0
   16.1451   -1.6813    0.0000 N   0  0  0  0  0  0  0  0  0  0  0  0
   21.5112    2.6847    0.0000 N   0  0  0  0  0  0  0  0  0  0  0  0
   22.3772    4.1847    0.0000 N   0  0  0  0  0  0  0  0  0  0  0  0
   20.6451    5.1847    0.0000 N   0  0  0  0  0  0  0  0  0  0  0  0
   24.1092    4.1847    0.0000 N   0  0  0  0  0  0  0  0  0  0  0  0
   13.6451   -2.5473    0.0000 N   0  0  0  0  0  0  0  0  0  0  0  0
   18.0471    3.6847    0.0000 N   0  0  0  0  0  0  0  0  0  0  0  0
   20.6451    7.1847    0.0000 N   0  0  0  0  0  0  0  0  0  0  0  0
   18.9131    8.1847    0.0000 N   0  0  0  0  0  0  0  0  0  0  0  0
   10.6506   -4.3839    0.0000 N   0  0  0  0  0  0  0  0  0  0  0  0
    8.6631   -5.2688    0.0000 N   0  0  0  0  0  0  0  0  0  0  0  0
    6.2727   -6.4732    0.0000 N   0  0  0  0  0  0  0  0  0  0  0  0
   24.9753   -0.3153    0.0000 C   0  0  1  0  0  0  0  0  0  0  0  0
   25.8413   -0.8153    0.0000 C   0  0  2  0  0  0  0  0  0  0  0  0
   25.8413   -1.8153    0.0000 C   0  0  1  0  0  0  0  0  0  0  0  0
   24.1092   -0.8153    0.0000 C   0  0  1  0  0  0  0  0  0  0  0  0
   25.8413    1.1847    0.0000 C   0  0  1  0  0  0  0  0  0  0  0  0
   24.9753   -2.3153    0.0000 C   0  0  2  0  0  0  0  0  0  0  0  0
   25.8413    2.1847    0.0000 C   0  0  2  0  0  0  0  0  0  0  0  0
   26.7073    2.6847    0.0000 C   0  0  2  0  0  0  0  0  0  0  0  0
   27.5733    2.1847    0.0000 C   0  0  1  0  0  0  0  0  0  0  0  0
   27.5733    1.1847    0.0000 C   0  0  1  0  0  0  0  0  0  0  0  0
   24.9753   -3.3153    0.0000 C   0  0  0  0  0  0  0  0  0  0  0  0
   22.3772   -0.8153    0.0000 C   0  0  3  0  0  0  0  0  0  0  0  0
   28.4394    0.6847    0.0000 C   0  0  0  0  0  0  0  0  0  0  0  0
   21.5112   -0.3153    0.0000 C   0  0  3  0  0  0  0  0  0  0  0  0
   22.3772   -1.8153    0.0000 C   0  0  0  0  0  0  0  0  0  0  0  0
   20.6451   -0.8153    0.0000 C   0  0  0  0  0  0  0  0  0  0  0  0
   27.5733    4.1847    0.0000 C   0  0  0  0  0  0  0  0  0  0  0  0
   23.1862   -2.4031    0.0000 C   0  0  0  0  0  0  0  0  0  0  0  0
   19.1451    0.0507    0.0000 C   0  0  3  0  0  0  0  0  0  0  0  0
   18.1451    0.0507    0.0000 C   0  0  3  0  0  0  0  0  0  0  0  0
   22.3772    1.1847    0.0000 C   0  0  0  0  0  0  0  0  0  0  0  0
   21.8772   -3.3541    0.0000 C   0  0  0  0  0  0  0  0  0  0  0  0
   17.6451   -0.8153    0.0000 C   0  0  3  0  0  0  0  0  0  0  0  0
   19.6451    0.9168    0.0000 C   0  0  0  0  0  0  0  0  0  0  0  0
   22.3772    2.1847    0.0000 C   0  0  0  0  0  0  0  0  0  0  0  0
   18.1451   -1.6813    0.0000 C   0  0  0  0  0  0  0  0  0  0  0  0
   16.6451   -0.8153    0.0000 C   0  0  0  0  0  0  0  0  0  0  0  0
   23.2432    2.6847    0.0000 C   0  0  0  0  0  0  0  0  0  0  0  0
   15.1451   -1.6813    0.0000 C   0  0  3  0  0  0  0  0  0  0  0  0
   21.5112    3.6847    0.0000 C   0  0  0  0  0  0  0  0  0  0  0  0
   23.2432    3.6847    0.0000 C   0  0  0  0  0  0  0  0  0  0  0  0
   14.6451   -0.8153    0.0000 C   0  0  3  0  0  0  0  0  0  0  0  0
   24.1092    2.1847    0.0000 C   0  0  0  0  0  0  0  0  0  0  0  0
   20.6451    4.1847    0.0000 C   0  0  3  0  0  0  0  0  0  0  0  0
   14.6451   -2.5473    0.0000 C   0  0  0  0  0  0  0  0  0  0  0  0
   19.7791    3.6847    0.0000 C   0  0  0  0  0  0  0  0  0  0  0  0
   15.1451    0.0507    0.0000 C   0  0  0  0  0  0  0  0  0  0  0  0
   19.7791    5.6847    0.0000 C   0  0  0  0  0  0  0  0  0  0  0  0
   13.1451   -3.4134    0.0000 C   0  0  0  0  0  0  0  0  0  0  0  0
   18.9131    4.1847    0.0000 C   0  0  0  0  0  0  0  0  0  0  0  0
   19.7791    6.6847    0.0000 C   0  0  3  0  0  0  0  0  0  0  0  0
   12.1451   -3.4134    0.0000 C   0  0  0  0  0  0  0  0  0  0  0  0
   18.9131    7.1847    0.0000 C   0  0  0  0  0  0  0  0  0  0  0  0
   11.6451   -4.2794    0.0000 C   0  0  0  0  0  0  0  0  0  0  0  0
   10.4427   -5.3621    0.0000 C   0  0  0  0  0  0  0  0  0  0  0  0
   11.3087   -5.8621    0.0000 C   0  0  0  0  0  0  0  0  0  0  0  0
    9.5292   -5.7688    0.0000 C   0  0  0  0  0  0  0  0  0  0  0  0
    7.9200   -5.9379    0.0000 C   0  0  0  0  0  0  0  0  0  0  0  0
    8.3267   -6.8515    0.0000 C   0  0  0  0  0  0  0  0  0  0  0  0
    6.9418   -5.7300    0.0000 C   0  0  0  0  0  0  0  0  0  0  0  0
    5.2946   -6.2653    0.0000 C   0  0  0  0  0  0  0  0  0  0  0  0
    4.6254   -7.0084    0.0000 C   0  0  0  0  0  0  0  0  0  0  0  0
    3.6473   -6.8005    0.0000 C   0  0  0  0  0  0  0  0  0  0  0  0
    2.0000   -7.3357    0.0000 C   0  0  0  0  0  0  0  0  0  0  0  0
    3.2872   -8.4947    0.0000 C   0  0  0  0  0  0  0  0  0  0  0  0
   24.4383   -0.0053    0.0000 H   0  0  0  0  0  0  0  0  0  0  0  0
   25.8413   -0.1953    0.0000 H   0  0  0  0  0  0  0  0  0  0  0  0
   25.8413   -2.4353    0.0000 H   0  0  0  0  0  0  0  0  0  0  0  0
   23.5723   -1.1253    0.0000 H   0  0  0  0  0  0  0  0  0  0  0  0
   25.8413    0.5647    0.0000 H   0  0  0  0  0  0  0  0  0  0  0  0
   24.4383   -2.6253    0.0000 H   0  0  0  0  0  0  0  0  0  0  0  0
   25.8413    2.8047    0.0000 H   0  0  0  0  0  0  0  0  0  0  0  0
   27.2442    2.9947    0.0000 H   0  0  0  0  0  0  0  0  0  0  0  0
   28.1103    1.8747    0.0000 H   0  0  0  0  0  0  0  0  0  0  0  0
   27.5733    0.5647    0.0000 H   0  0  0  0  0  0  0  0  0  0  0  0
   25.1873   -3.8979    0.0000 H   0  0  0  0  0  0  0  0  0  0  0  0
   25.5858   -3.2076    0.0000 H   0  0  0  0  0  0  0  0  0  0  0  0
   22.3772   -0.1953    0.0000 H   0  0  0  0  0  0  0  0  0  0  0  0
   29.0499    0.5770    0.0000 H   0  0  0  0  0  0  0  0  0  0  0  0
   28.6514    1.2673    0.0000 H   0  0  0  0  0  0  0  0  0  0  0  0
   27.2442   -0.6253    0.0000 H   0  0  0  0  0  0  0  0  0  0  0  0
   26.7073   -2.9353    0.0000 H   0  0  0  0  0  0  0  0  0  0  0  0
   20.9742   -0.0053    0.0000 H   0  0  0  0  0  0  0  0  0  0  0  0
   24.9753    3.3047    0.0000 H   0  0  0  0  0  0  0  0  0  0  0  0
   28.9763    2.3747    0.0000 H   0  0  0  0  0  0  0  0  0  0  0  0
   24.1092   -4.4353    0.0000 H   0  0  0  0  0  0  0  0  0  0  0  0
   20.9742    0.9947    0.0000 H   0  0  0  0  0  0  0  0  0  0  0  0
   28.9763   -0.6253    0.0000 H   0  0  0  0  0  0  0  0  0  0  0  0
   20.9485   -2.4247    0.0000 H   0  0  0  0  0  0  0  0  0  0  0  0
   23.7759   -2.2115    0.0000 H   0  0  0  0  0  0  0  0  0  0  0  0
   18.8351   -0.4862    0.0000 H   0  0  0  0  0  0  0  0  0  0  0  0
   19.3351   -1.3522    0.0000 H   0  0  0  0  0  0  0  0  0  0  0  0
   18.4551    0.5877    0.0000 H   0  0  0  0  0  0  0  0  0  0  0  0
   17.3351   -1.3522    0.0000 H   0  0  0  0  0  0  0  0  0  0  0  0
   21.5128   -3.8557    0.0000 H   0  0  0  0  0  0  0  0  0  0  0  0
   20.1821    0.6068    0.0000 H   0  0  0  0  0  0  0  0  0  0  0  0
   19.9551    1.4537    0.0000 H   0  0  0  0  0  0  0  0  0  0  0  0
   19.1082    1.2268    0.0000 H   0  0  0  0  0  0  0  0  0  0  0  0
   28.1103    5.4947    0.0000 H   0  0  0  0  0  0  0  0  0  0  0  0
   27.0364    5.4947    0.0000 H   0  0  0  0  0  0  0  0  0  0  0  0
   17.6082   -1.9913    0.0000 H   0  0  0  0  0  0  0  0  0  0  0  0
   18.4551   -2.2183    0.0000 H   0  0  0  0  0  0  0  0  0  0  0  0
   18.6821   -1.3713    0.0000 H   0  0  0  0  0  0  0  0  0  0  0  0
   17.0251    0.9168    0.0000 H   0  0  0  0  0  0  0  0  0  0  0  0
   16.4551   -2.2183    0.0000 H   0  0  0  0  0  0  0  0  0  0  0  0
   15.4551   -1.1444    0.0000 H   0  0  0  0  0  0  0  0  0  0  0  0
   14.3351   -1.3522    0.0000 H   0  0  0  0  0  0  0  0  0  0  0  0
   23.7992    1.6478    0.0000 H   0  0  0  0  0  0  0  0  0  0  0  0
   24.6462    1.8747    0.0000 H   0  0  0  0  0  0  0  0  0  0  0  0
   24.4192    2.7216    0.0000 H   0  0  0  0  0  0  0  0  0  0  0  0
   21.1821    4.4947    0.0000 H   0  0  0  0  0  0  0  0  0  0  0  0
   19.3806    3.2098    0.0000 H   0  0  0  0  0  0  0  0  0  0  0  0
   20.1776    3.2098    0.0000 H   0  0  0  0  0  0  0  0  0  0  0  0
   15.6821   -0.2593    0.0000 H   0  0  0  0  0  0  0  0  0  0  0  0
   15.4551    0.5877    0.0000 H   0  0  0  0  0  0  0  0  0  0  0  0
   14.6082    0.3607    0.0000 H   0  0  0  0  0  0  0  0  0  0  0  0
   21.1821    5.4947    0.0000 H   0  0  0  0  0  0  0  0  0  0  0  0
   24.1092    4.8047    0.0000 H   0  0  0  0  0  0  0  0  0  0  0  0
   24.6462    3.8747    0.0000 H   0  0  0  0  0  0  0  0  0  0  0  0
   13.3351   -2.0104    0.0000 H   0  0  0  0  0  0  0  0  0  0  0  0
   19.1685    5.7924    0.0000 H   0  0  0  0  0  0  0  0  0  0  0  0
   19.5671    5.1021    0.0000 H   0  0  0  0  0  0  0  0  0  0  0  0
   13.3351   -0.2784    0.0000 H   0  0  0  0  0  0  0  0  0  0  0  0
   13.0375   -4.0240    0.0000 H   0  0  0  0  0  0  0  0  0  0  0  0
   13.7277   -3.6254    0.0000 H   0  0  0  0  0  0  0  0  0  0  0  0
   19.7791    7.3047    0.0000 H   0  0  0  0  0  0  0  0  0  0  0  0
   12.2528   -2.8028    0.0000 H   0  0  0  0  0  0  0  0  0  0  0  0
   11.5625   -3.2013    0.0000 H   0  0  0  0  0  0  0  0  0  0  0  0
   17.5101    3.9947    0.0000 H   0  0  0  0  0  0  0  0  0  0  0  0
   18.0471    3.0647    0.0000 H   0  0  0  0  0  0  0  0  0  0  0  0
   20.6451    7.8047    0.0000 H   0  0  0  0  0  0  0  0  0  0  0  0
   21.1821    6.8747    0.0000 H   0  0  0  0  0  0  0  0  0  0  0  0
   18.3761    8.4947    0.0000 H   0  0  0  0  0  0  0  0  0  0  0  0
   19.4500    8.4947    0.0000 H   0  0  0  0  0  0  0  0  0  0  0  0
   11.3735   -6.4787    0.0000 H   0  0  0  0  0  0  0  0  0  0  0  0
    8.0167   -7.3884    0.0000 H   0  0  0  0  0  0  0  0  0  0  0  0
    5.5268   -5.6904    0.0000 H   0  0  0  0  0  0  0  0  0  0  0  0
    4.7688   -5.9367    0.0000 H   0  0  0  0  0  0  0  0  0  0  0  0
    4.3932   -7.5833    0.0000 H   0  0  0  0  0  0  0  0  0  0  0  0
    5.1512   -7.3370    0.0000 H   0  0  0  0  0  0  0  0  0  0  0  0
    6.4643   -7.0628    0.0000 H   0  0  0  0  0  0  0  0  0  0  0  0
    3.8795   -6.2256    0.0000 H   0  0  0  0  0  0  0  0  0  0  0  0
    3.1215   -6.4720    0.0000 H   0  0  0  0  0  0  0  0  0  0  0  0
    2.1289   -6.7293    0.0000 H   0  0  0  0  0  0  0  0  0  0  0  0
    1.3936   -7.2068    0.0000 H   0  0  0  0  0  0  0  0  0  0  0  0
    1.8711   -7.9422    0.0000 H   0  0  0  0  0  0  0  0  0  0  0  0
    2.6975   -8.6863    0.0000 H   0  0  0  0  0  0  0  0  0  0  0  0
    3.4788   -9.0844    0.0000 H   0  0  0  0  0  0  0  0  0  0  0  0
    3.8768   -8.3031    0.0000 H   0  0  0  0  0  0  0  0  0  0  0  0
  1 85  1  0  0  0  0
  1 87  1  0  0  0  0
  2 88  1  0  0  0  0
  2 90  1  0  0  0  0
  3 94  1  0  0  0  0
  3 95  1  0  0  0  0
  3 96  1  0  0  0  0
 42  4  1  1  0  0  0
 46  4  1  6  0  0  0
  5 45  1  0  0  0  0
  5 47  1  0  0  0  0
  6 46  1  0  0  0  0
  6 51  1  0  0  0  0
 45  7  1  1  0  0  0
  7 53  1  0  0  0  0
 43  8  1  1  0  0  0
  8112  1  0  0  0  0
 44  9  1  6  0  0  0
  9113  1  0  0  0  0
 49 10  1  1  0  0  0
 10 58  1  0  0  0  0
 48 11  1  1  0  0  0
 11115  1  0  0  0  0
 50 12  1  6  0  0  0
 12116  1  0  0  0  0
 13 52  1  0  0  0  0
 13117  1  0  0  0  0
 14 54  1  0  0  0  0
 14119  1  0  0  0  0
 15 57  2  0  0  0  0
 16 58  2  0  0  0  0
 17 61  1  0  0  0  0
 17135  1  0  0  0  0
 18 62  2  0  0  0  0
 19 68  2  0  0  0  0
 20 73  1  0  0  0  0
 20154  1  0  0  0  0
 21 76  2  0  0  0  0
 22 81  2  0  0  0  0
 23 84  2  0  0  0  0
 24 91  2  0  0  0  0
 25 55  1  0  0  0  0
 25 62  1  0  0  0  0
 25118  1  0  0  0  0
 26 56  1  0  0  0  0
 26 63  1  0  0  0  0
 26120  1  0  0  0  0
 27 57  1  0  0  0  0
 27 60  1  0  0  0  0
 27123  1  0  0  0  0
 28 59  1  0  0  0  0
 28 63  2  0  0  0  0
 29 58  1  0  0  0  0
 29130  1  0  0  0  0
 29131  1  0  0  0  0
 30 68  1  0  0  0  0
 30 70  1  0  0  0  0
 30136  1  0  0  0  0
 31 66  1  0  0  0  0
 31 71  2  0  0  0  0
 32 71  1  0  0  0  0
 32 72  2  0  0  0  0
 33 75  1  0  0  0  0
 33 79  1  0  0  0  0
 33148  1  0  0  0  0
 34 72  1  0  0  0  0
 34149  1  0  0  0  0
 34150  1  0  0  0  0
 35 76  1  0  0  0  0
 35 80  1  0  0  0  0
 35151  1  0  0  0  0
 36 81  1  0  0  0  0
 36160  1  0  0  0  0
 36161  1  0  0  0  0
 37 82  1  0  0  0  0
 37162  1  0  0  0  0
 37163  1  0  0  0  0
 38 84  1  0  0  0  0
 38164  1  0  0  0  0
 38165  1  0  0  0  0
 39 85  2  0  0  0  0
 39 86  1  0  0  0  0
 40 88  2  0  0  0  0
 40 89  1  0  0  0  0
 41 91  1  0  0  0  0
 41 92  1  0  0  0  0
 41172  1  0  0  0  0
 42 43  1  0  0  0  0
 42 45  1  0  0  0  0
 42 97  1  0  0  0  0
 43 44  1  0  0  0  0
 43 98  1  0  0  0  0
 44 47  1  0  0  0  0
 44 99  1  0  0  0  0
 45100  1  0  0  0  0
 46 48  1  0  0  0  0
 46101  1  0  0  0  0
 47 52  1  6  0  0  0
 47102  1  0  0  0  0
 48 49  1  0  0  0  0
 48103  1  0  0  0  0
 49 50  1  0  0  0  0
 49104  1  0  0  0  0
 50 51  1  0  0  0  0
 50105  1  0  0  0  0
 51 54  1  1  0  0  0
 51106  1  0  0  0  0
 52107  1  0  0  0  0
 52108  1  0  0  0  0
 53 55  1  0  0  0  0
 53 56  1  0  0  0  0
 53109  1  0  0  0  0
 54110  1  0  0  0  0
 54111  1  0  0  0  0
 55 57  1  0  0  0  0
 55114  1  0  0  0  0
 56 59  2  0  0  0  0
 59121  1  0  0  0  0
 60 61  1  0  0  0  0
 60 65  1  0  0  0  0
 60122  1  0  0  0  0
 61 64  1  0  0  0  0
 61124  1  0  0  0  0
 62 66  1  0  0  0  0
 63126  1  0  0  0  0
 64 67  1  0  0  0  0
 64 68  1  0  0  0  0
 64125  1  0  0  0  0
 65127  1  0  0  0  0
 65128  1  0  0  0  0
 65129  1  0  0  0  0
 66 69  2  0  0  0  0
 67132  1  0  0  0  0
 67133  1  0  0  0  0
 67134  1  0  0  0  0
 69 72  1  0  0  0  0
 69 74  1  0  0  0  0
 70 73  1  0  0  0  0
 70 76  1  0  0  0  0
 70137  1  0  0  0  0
 71 75  1  0  0  0  0
 73 78  1  0  0  0  0
 73138  1  0  0  0  0
 74139  1  0  0  0  0
 74140  1  0  0  0  0
 74141  1  0  0  0  0
 75 77  1  0  0  0  0
 75142  1  0  0  0  0
 77 81  1  0  0  0  0
 77143  1  0  0  0  0
 77144  1  0  0  0  0
 78145  1  0  0  0  0
 78146  1  0  0  0  0
 78147  1  0  0  0  0
 79 82  1  0  0  0  0
 79152  1  0  0  0  0
 79153  1  0  0  0  0
 80 83  1  0  0  0  0
 80155  1  0  0  0  0
 80156  1  0  0  0  0
 82 84  1  0  0  0  0
 82157  1  0  0  0  0
 83 85  1  0  0  0  0
 83158  1  0  0  0  0
 83159  1  0  0  0  0
 86 87  2  0  0  0  0
 86 88  1  0  0  0  0
 87166  1  0  0  0  0
 89 90  2  0  0  0  0
 89 91  1  0  0  0  0
 90167  1  0  0  0  0
 92 93  1  0  0  0  0
 92168  1  0  0  0  0
 92169  1  0  0  0  0
 93 94  1  0  0  0  0
 93170  1  0  0  0  0
 93171  1  0  0  0  0
 94173  1  0  0  0  0
 94174  1  0  0  0  0
 95175  1  0  0  0  0
 95176  1  0  0  0  0
 95177  1  0  0  0  0
 96178  1  0  0  0  0
 96179  1  0  0  0  0
 96180  1  0  0  0  0
M  CHG  1   3   1
M  END
> <PUBCHEM_COMPOUND_CID>
72467

> <PUBCHEM_COMPOUND_CANONICALIZED>
1

> <PUBCHEM_CACTVS_COMPLEXITY>
2580

> <PUBCHEM_CACTVS_HBOND_ACCEPTOR>
31

> <PUBCHEM_CACTVS_HBOND_DONOR>
20

> <PUBCHEM_CACTVS_ROTATABLE_BOND>
36

> <PUBCHEM_CACTVS_SUBSKEYS>
AAADcfB//gBgAAAAAAAAAAAAAAAAAWLFgAAsSJAAAAAAAAAB/gAAHgQQCAAADTz13wevuZbJlgisAxd3fASA8K33GrgBWbW4fFmTfJ5g/em/RQhPtgL3YaHcYQwMAAAAAAAAAAAAAAAAAAAAAAAAAAAAAA==

> <PUBCHEM_IUPAC_OPENEYE_NAME>
3-[[2-[2-[2-[[2-[[4-[[2-[[6-amino-2-[3-amino-1-[(2,3-diamino-3-oxo-propyl)amino]-3-oxo-propyl]-5-methyl-pyrimidine-4-carbonyl]amino]-3-[(2R,3S,4S,5S,6S)-3-[(2R,3S,4S,5R,6R)-4-carbamoyloxy-3,5-dihydroxy-6-(hydroxymethyl)tetrahydropyran-2-yl]oxy-4,5-dihydroxy-6-(hydroxymethyl)tetrahydropyran-2-yl]oxy-3-(1H-imidazol-5-yl)propanoyl]amino]-3-hydroxy-2-methyl-pentanoyl]amino]-3-hydroxy-butanoyl]amino]ethyl]thiazol-4-yl]thiazole-4-carbonyl]amino]propyl-dimethyl-sulfonium

> <PUBCHEM_IUPAC_CAS_NAME>
3-[[[2-[2-[2-[[2-[[4-[[2-[[[6-amino-2-[3-amino-1-[(2,3-diamino-3-oxopropyl)amino]-3-oxopropyl]-5-methyl-4-pyrimidinyl]-oxomethyl]amino]-3-[[(2R,3S,4S,5S,6S)-3-[[(2R,3S,4S,5R,6R)-4-carbamoyloxy-3,5-dihydroxy-6-(hydroxymethyl)-2-oxanyl]oxy]-4,5-dihydroxy-6-(hydroxymethyl)-2-oxanyl]oxy]-3-(1H-imidazol-5-yl)-1-oxopropyl]amino]-3-hydroxy-2-methyl-1-oxopentyl]amino]-3-hydroxy-1-oxobutyl]amino]ethyl]-4-thiazolyl]-4-thiazolyl]-oxomethyl]amino]propyl-dimethylsulfonium

> <PUBCHEM_IUPAC_NAME>
3-[[2-[2-[2-[[2-[[4-[[2-[[6-amino-2-[3-amino-1-[(2,3-diamino-3-oxopropyl)amino]-3-oxopropyl]-5-methylpyrimidine-4-carbonyl]amino]-3-[(2R,3S,4S,5S,6S)-3-[(2R,3S,4S,5R,6R)-4-carbamoyloxy-3,5-dihydroxy-6-(hydroxymethyl)oxan-2-yl]oxy-4,5-dihydroxy-6-(hydroxymethyl)oxan-2-yl]oxy-3-(1H-imidazol-5-yl)propanoyl]amino]-3-hydroxy-2-methylpentanoyl]amino]-3-hydroxybutanoyl]amino]ethyl]-1,3-thiazol-4-yl]-1,3-thiazole-4-carbonyl]amino]propyl-dimethylsulfanium

> <PUBCHEM_IUPAC_SYSTEMATIC_NAME>
3-[[2-[2-[2-[[2-[[4-[[3-[(2R,3S,4S,5S,6S)-3-[(2R,3S,4S,5R,6R)-4-aminocarbonyloxy-6-(hydroxymethyl)-3,5-bis(oxidanyl)oxan-2-yl]oxy-6-(hydroxymethyl)-4,5-bis(oxidanyl)oxan-2-yl]oxy-2-[[6-azanyl-2-[3-azanyl-1-[[2,3-bis(azanyl)-3-oxidanylidene-propyl]amino]-3-oxidanylidene-propyl]-5-methyl-pyrimidin-4-yl]carbonylamino]-3-(1H-imidazol-5-yl)propanoyl]amino]-2-methyl-3-oxidanyl-pentanoyl]amino]-3-oxidanyl-butanoyl]amino]ethyl]-1,3-thiazol-4-yl]-1,3-thiazol-4-yl]carbonylamino]propyl-dimethyl-sulfanium

> <PUBCHEM_IUPAC_TRADITIONAL_NAME>
3-[[2-[2-[2-[[2-[[4-[[2-[[6-amino-2-[3-amino-1-[(2,3-diamino-3-keto-propyl)amino]-3-keto-propyl]-5-methyl-pyrimidine-4-carbonyl]amino]-3-[(2R,3S,4S,5S,6S)-3-[(2R,3S,4S,5R,6R)-4-carbamoyloxy-3,5-dihydroxy-6-methylol-tetrahydropyran-2-yl]oxy-4,5-dihydroxy-6-methylol-tetrahydropyran-2-yl]oxy-3-(1H-imidazol-5-yl)propanoyl]amino]-3-hydroxy-2-methyl-pentanoyl]amino]-3-hydroxy-butanoyl]amino]ethyl]thiazol-4-yl]thiazole-4-carbonyl]amino]propyl-dimethyl-sulfonium

> <PUBCHEM_IUPAC_INCHI>
InChI=1S/C55H83N17O21S3/c1-20-33(69-46(72-44(20)58)25(12-31(57)76)64-13-24(56)45(59)82)50(86)71-35(41(26-14-61-19-65-26)91-54-43(39(80)37(78)29(15-73)90-54)92-53-40(81)42(93-55(60)88)38(79)30(16-74)89-53)51(87)66-22(3)36(77)21(2)47(83)70-34(23(4)75)49(85)63-10-8-32-67-28(18-94-32)52-68-27(17-95-52)48(84)62-9-7-11-96(5)6/h14,17-19,21-25,29-30,34-43,53-54,64,73-75,77-81H,7-13,15-16,56H2,1-6H3,(H13-,57,58,59,60,61,62,63,65,66,69,70,71,72,76,82,83,84,85,86,87,88)/p+1/t21?,22?,23?,24?,25?,29-,30+,34?,35?,36?,37+,38+,39-,40-,41?,42-,43-,53+,54-/m0/s1

> <PUBCHEM_IUPAC_INCHIKEY>
OYVAGSVQBOHSSS-VGWQMFASSA-O

> <PUBCHEM_XLOGP3_AA>
-7.5

> <PUBCHEM_EXACT_MASS>
1414.518981

> <PUBCHEM_MOLECULAR_FORMULA>
C55H84N17O21S3+

> <PUBCHEM_MOLECULAR_WEIGHT>
1415.55176

> <PUBCHEM_OPENEYE_CAN_SMILES>
CC1=C(N=C(N=C1N)C(CC(=O)N)NCC(C(=O)N)N)C(=O)NC(C(C2=CN=CN2)OC3C(C(C(C(O3)CO)O)O)OC4C(C(C(C(O4)CO)O)OC(=O)N)O)C(=O)NC(C)C(C(C)C(=O)NC(C(C)O)C(=O)NCCC5=NC(=CS5)C6=NC(=CS6)C(=O)NCCC[S+](C)C)O

> <PUBCHEM_OPENEYE_ISO_SMILES>
CC1=C(N=C(N=C1N)C(CC(=O)N)NCC(C(=O)N)N)C(=O)NC(C(C2=CN=CN2)O[C@H]3[C@H]([C@H]([C@@H]([C@@H](O3)CO)O)O)O[C@@H]4[C@H]([C@H]([C@@H]([C@H](O4)CO)O)OC(=O)N)O)C(=O)NC(C)C(C(C)C(=O)NC(C(C)O)C(=O)NCCC5=NC(=CS5)C6=NC(=CS6)C(=O)NCCC[S+](C)C)O

> <PUBCHEM_CACTVS_TPSA>
685

> <PUBCHEM_MONOISOTOPIC_WEIGHT>
1414.518981

> <PUBCHEM_TOTAL_CHARGE>
1

> <PUBCHEM_HEAVY_ATOM_COUNT>
96

> <PUBCHEM_ATOM_DEF_STEREO_COUNT>
10

> <PUBCHEM_ATOM_UDEF_STEREO_COUNT>
9

> <PUBCHEM_BOND_DEF_STEREO_COUNT>
0

> <PUBCHEM_BOND_UDEF_STEREO_COUNT>
0

> <PUBCHEM_ISOTOPIC_ATOM_COUNT>
0

> <PUBCHEM_COMPONENT_COUNT>
1

> <PUBCHEM_CACTVS_TAUTO_COUNT>
1000

> <PUBCHEM_COORDINATE_TYPE>
1
5
255

> <PUBCHEM_BONDANNOTATIONS>
1  85  8
1  87  8
49  10  5
48  11  5
50  12  6
61  17  3
2  88  8
2  90  8
73  20  3
26  56  8
26  63  8
28  59  8
28  63  8
31  66  8
31  71  8
32  71  8
32  72  8
82  37  3
39  85  8
39  86  8
42  4  5
46  4  6
40  88  8
40  89  8
47  52  6
51  54  5
55  57  3
56  59  8
60  65  3
64  67  3
66  69  8
69  72  8
45  7  5
53  7  3
70  76  3
75  77  3
43  8  5
86  87  8
89  90  8
44  9  6

$$$$
