72938
  -OEChem-12171208212D

 48 51  0     1  0  0  0  0  0999 V2000
    8.6651    1.9349    0.0000 F   0  0  0  0  0  0  0  0  0  0  0  0
    5.1350    2.9108    0.0000 O   0  0  0  0  0  0  0  0  0  0  0  0
   11.6517    0.5568    0.0000 O   0  0  0  0  0  0  0  0  0  0  0  0
    2.5369    1.4108    0.0000 O   0  0  0  0  0  0  0  0  0  0  0  0
    3.4030    2.9108    0.0000 O   0  0  0  0  0  0  0  0  0  0  0  0
    5.1350   -0.0892    0.0000 N   0  0  0  0  0  0  0  0  0  0  0  0
    8.6651   -0.1134    0.0000 N   0  0  3  0  0  0  0  0  0  0  0  0
    6.8950   -0.1239    0.0000 N   0  0  0  0  0  0  0  0  0  0  0  0
   11.2414   -0.3552    0.0000 N   0  0  0  0  0  0  0  0  0  0  0  0
   11.1405   -2.3434    0.0000 N   0  0  0  0  0  0  0  0  0  0  0  0
    5.1350   -1.0892    0.0000 C   0  0  0  0  0  0  0  0  0  0  0  0
    4.6350   -1.9552    0.0000 C   0  0  0  0  0  0  0  0  0  0  0  0
    5.6350   -1.9552    0.0000 C   0  0  0  0  0  0  0  0  0  0  0  0
    6.0010    0.4108    0.0000 C   0  0  0  0  0  0  0  0  0  0  0  0
    9.7432   -1.3200    0.0000 C   0  0  3  0  0  0  0  0  0  0  0  0
    8.7658   -1.1083    0.0000 C   0  0  0  0  0  0  0  0  0  0  0  0
    9.5802    0.2899    0.0000 C   0  0  0  0  0  0  0  0  0  0  0  0
    4.2690    0.4108    0.0000 C   0  0  0  0  0  0  0  0  0  0  0  0
   10.2465   -0.4559    0.0000 C   0  0  0  0  0  0  0  0  0  0  0  0
    7.8010    0.3900    0.0000 C   0  0  0  0  0  0  0  0  0  0  0  0
    6.0010    1.4108    0.0000 C   0  0  0  0  0  0  0  0  0  0  0  0
   10.1464   -2.2351    0.0000 C   0  0  0  0  0  0  0  0  0  0  0  0
    4.2690    1.4108    0.0000 C   0  0  0  0  0  0  0  0  0  0  0  0
    5.1350    1.9108    0.0000 C   0  0  0  0  0  0  0  0  0  0  0  0
    7.8010    1.4316    0.0000 C   0  0  0  0  0  0  0  0  0  0  0  0
    6.8950    1.9454    0.0000 C   0  0  0  0  0  0  0  0  0  0  0  0
    3.4030    1.9108    0.0000 C   0  0  0  0  0  0  0  0  0  0  0  0
   12.6466    0.6575    0.0000 C   0  0  0  0  0  0  0  0  0  0  0  0
    5.7339   -0.9287    0.0000 H   0  0  0  0  0  0  0  0  0  0  0  0
    4.0524   -1.7432    0.0000 H   0  0  0  0  0  0  0  0  0  0  0  0
    4.5274   -2.5658    0.0000 H   0  0  0  0  0  0  0  0  0  0  0  0
    5.7427   -2.5658    0.0000 H   0  0  0  0  0  0  0  0  0  0  0  0
    6.2176   -1.7432    0.0000 H   0  0  0  0  0  0  0  0  0  0  0  0
    9.2057   -1.9785    0.0000 H   0  0  0  0  0  0  0  0  0  0  0  0
    8.1458   -1.1059    0.0000 H   0  0  0  0  0  0  0  0  0  0  0  0
    8.6986   -1.7246    0.0000 H   0  0  0  0  0  0  0  0  0  0  0  0
   10.0832    0.6523    0.0000 H   0  0  0  0  0  0  0  0  0  0  0  0
    9.2723    0.8280    0.0000 H   0  0  0  0  0  0  0  0  0  0  0  0
    3.7320    0.1008    0.0000 H   0  0  0  0  0  0  0  0  0  0  0  0
    9.5442   -2.3827    0.0000 H   0  0  0  0  0  0  0  0  0  0  0  0
   10.1872   -2.8537    0.0000 H   0  0  0  0  0  0  0  0  0  0  0  0
    6.8878    2.5654    0.0000 H   0  0  0  0  0  0  0  0  0  0  0  0
   11.3905   -2.9108    0.0000 H   0  0  0  0  0  0  0  0  0  0  0  0
   11.5069   -1.8432    0.0000 H   0  0  0  0  0  0  0  0  0  0  0  0
    2.0000    1.7208    0.0000 H   0  0  0  0  0  0  0  0  0  0  0  0
   12.7090    0.0406    0.0000 H   0  0  0  0  0  0  0  0  0  0  0  0
   13.2634    0.7199    0.0000 H   0  0  0  0  0  0  0  0  0  0  0  0
   12.5842    1.2743    0.0000 H   0  0  0  0  0  0  0  0  0  0  0  0
  1 25  1  0  0  0  0
  2 24  2  0  0  0  0
  3  9  1  0  0  0  0
  3 28  1  0  0  0  0
  4 27  1  0  0  0  0
  4 45  1  0  0  0  0
  5 27  2  0  0  0  0
  6 11  1  0  0  0  0
  6 14  1  0  0  0  0
  6 18  1  0  0  0  0
  7 16  1  0  0  0  0
  7 17  1  0  0  0  0
  7 20  1  0  0  0  0
  8 14  2  0  0  0  0
  8 20  1  0  0  0  0
  9 19  2  3  0  0  0
 10 22  1  0  0  0  0
 10 43  1  0  0  0  0
 10 44  1  0  0  0  0
 11 12  1  0  0  0  0
 11 13  1  0  0  0  0
 11 29  1  0  0  0  0
 12 13  1  0  0  0  0
 12 30  1  0  0  0  0
 12 31  1  0  0  0  0
 13 32  1  0  0  0  0
 13 33  1  0  0  0  0
 14 21  1  0  0  0  0
 15 16  1  0  0  0  0
 15 19  1  0  0  0  0
 15 22  1  0  0  0  0
 15 34  1  0  0  0  0
 16 35  1  0  0  0  0
 16 36  1  0  0  0  0
 17 19  1  0  0  0  0
 17 37  1  0  0  0  0
 17 38  1  0  0  0  0
 18 23  2  0  0  0  0
 18 39  1  0  0  0  0
 20 25  2  0  0  0  0
 21 24  1  0  0  0  0
 21 26  2  0  0  0  0
 22 40  1  0  0  0  0
 22 41  1  0  0  0  0
 23 24  1  0  0  0  0
 23 27  1  0  0  0  0
 25 26  1  0  0  0  0
 26 42  1  0  0  0  0
 28 46  1  0  0  0  0
 28 47  1  0  0  0  0
 28 48  1  0  0  0  0
M  END
> <PUBCHEM_COMPOUND_CID>
72938

> <PUBCHEM_COMPOUND_CANONICALIZED>
1

> <PUBCHEM_CACTVS_COMPLEXITY>
725

> <PUBCHEM_CACTVS_HBOND_ACCEPTOR>
10

> <PUBCHEM_CACTVS_HBOND_DONOR>
2

> <PUBCHEM_CACTVS_ROTATABLE_BOND>
5

> <PUBCHEM_CACTVS_SUBSKEYS>
AAADceB7uQAAAAAAAAAAAAAAGAAAAWAAAAAsQAAAAAAAAACBgAAAHwAUCAAADSzBmg4zuJNYEgCoA6L2bACCgCklACABmKE4RNiIJP7I3JGEYYhssALI2eeY2SKOAAAAAAAAAAAAAAAAAAAAAAAAAAAAAA==

> <PUBCHEM_IUPAC_OPENEYE_NAME>
7-[3-(aminomethyl)-4-methoxyimino-pyrrolidin-1-yl]-1-cyclopropyl-6-fluoro-4-oxo-1,8-naphthyridine-3-carboxylic acid

> <PUBCHEM_IUPAC_CAS_NAME>
7-[3-(aminomethyl)-4-methoxyimino-1-pyrrolidinyl]-1-cyclopropyl-6-fluoro-4-oxo-1,8-naphthyridine-3-carboxylic acid

> <PUBCHEM_IUPAC_NAME>
7-[3-(aminomethyl)-4-methoxyiminopyrrolidin-1-yl]-1-cyclopropyl-6-fluoro-4-oxo-1,8-naphthyridine-3-carboxylic acid

> <PUBCHEM_IUPAC_SYSTEMATIC_NAME>
7-[3-(aminomethyl)-4-methoxyimino-pyrrolidin-1-yl]-1-cyclopropyl-6-fluoranyl-4-oxidanylidene-1,8-naphthyridine-3-carboxylic acid

> <PUBCHEM_IUPAC_TRADITIONAL_NAME>
7-[3-(aminomethyl)-4-methyloximino-pyrrolidino]-1-cyclopropyl-6-fluoro-4-keto-1,8-naphthyridine-3-carboxylic acid

> <PUBCHEM_IUPAC_INCHI>
InChI=1S/C18H20FN5O4/c1-28-22-14-8-23(6-9(14)5-20)17-13(19)4-11-15(25)12(18(26)27)7-24(10-2-3-10)16(11)21-17/h4,7,9-10H,2-3,5-6,8,20H2,1H3,(H,26,27)

> <PUBCHEM_IUPAC_INCHIKEY>
ZRCVYEYHRGVLOC-UHFFFAOYSA-N

> <PUBCHEM_XLOGP3_AA>
-0.7

> <PUBCHEM_EXACT_MASS>
389.149932

> <PUBCHEM_MOLECULAR_FORMULA>
C18H20FN5O4

> <PUBCHEM_MOLECULAR_WEIGHT>
389.380903

> <PUBCHEM_OPENEYE_CAN_SMILES>
CON=C1CN(CC1CN)C2=C(C=C3C(=O)C(=CN(C3=N2)C4CC4)C(=O)O)F

> <PUBCHEM_OPENEYE_ISO_SMILES>
CON=C1CN(CC1CN)C2=C(C=C3C(=O)C(=CN(C3=N2)C4CC4)C(=O)O)F

> <PUBCHEM_CACTVS_TPSA>
121

> <PUBCHEM_MONOISOTOPIC_WEIGHT>
389.149932

> <PUBCHEM_TOTAL_CHARGE>
0

> <PUBCHEM_HEAVY_ATOM_COUNT>
28

> <PUBCHEM_ATOM_DEF_STEREO_COUNT>
0

> <PUBCHEM_ATOM_UDEF_STEREO_COUNT>
1

> <PUBCHEM_BOND_DEF_STEREO_COUNT>
0

> <PUBCHEM_BOND_UDEF_STEREO_COUNT>
1

> <PUBCHEM_ISOTOPIC_ATOM_COUNT>
0

> <PUBCHEM_COMPONENT_COUNT>
1

> <PUBCHEM_CACTVS_TAUTO_COUNT>
3

> <PUBCHEM_COORDINATE_TYPE>
1
5
255

> <PUBCHEM_BONDANNOTATIONS>
14  21  8
15  34  3
18  23  8
20  25  8
21  24  8
21  26  8
23  24  8
25  26  8
6  14  8
6  18  8
8  14  8
8  20  8
9  19  1

$$$$
